 
    CNRS - NERC - Met OFFICE - MERCATOR-ocean - INGV - CMCC
                        NEMO team
             Ocean General Circulation Model
                   version 3.6  (2015) 
 
 
  mynode : mpi initialisation                                                    
  ~~~~~~                                                                         
     Namelist nammpp                                                             
        mpi send type                      cn_mpi_send = I                       
        size in bytes of exported buffer   nn_buffer   =  0                      
        processor grid extent in i         jpni =  8                             
        processor grid extent in j         jpnj =  9                             
        number of local domains           jpnij =  72                            
        avoid use of mpi_allgather at the north fold  ln_nnogather =  F          
             Immediate non-blocking send (isend)                                 

AAAAAAAA

 
 nemo_ctl: Control prints & Benchmark
 ~~~~~~~ 
    Namelist namctl
       run control (for debugging)     ln_ctl     =  F
       level of print                  nn_print   =  0
       Start i indice for SUM control  nn_ictls   =  0
       End i indice for SUM control    nn_ictle   =  0
       Start j indice for SUM control  nn_jctls   =  0
       End j indice for SUM control    nn_jctle   =  0
       number of proc. following i     nn_isplt   =  1
       number of proc. following j     nn_jsplt   =  1
       benchmark parameter (0/1)       nn_bench   =  0
       timing activated    (0/1)       nn_timing  =  1
 
 namcfg  : configuration initialization through namelist read
 ~~~~~~~ 
    Namelist namcfg
       configuration name              cp_cfg      = amm
       configuration zoom name         cp_cfz      = no zoom
       configuration resolution        jp_cfg      =  11
       1st lateral dimension ( >= jpi ) jpidta     =  1458
       2nd    "         "    ( >= jpj ) jpjdta     =  1345
       3nd    "         "               jpkdta     =  51
       1st dimension of global domain in i jpiglo  =  1458
       2nd    -                  -    in j jpjglo  =  1345
       left bottom i index of the zoom (in data domain) jpizoom =  1
       left bottom j index of the zoom (in data domain) jpizoom =  1
       lateral cond. type (between 0 and 6) jperio =  0
       use file attribute if exists as i/p j-start ln_use_jattr =  F
 
 mpp_init : Message Passing MPI
 ~~~~~~~~
 
            defines mpp subdomains
            ----------------------
            iresti= 8  irestj= 2
            jpni  = 8  jpnj  = 9
 
     ****************************************************************
     *              *               *               *               *   
   9 *  184  x151   *   184  x151   *   184  x151   *   184  x151   *   
     *              *               *               *               *   
     ****************************************************************
     *              *               *               *               *   
   8 *  184  x151   *   184  x151   *   184  x151   *   184  x151   *   
     *              *               *               *               *   
     ****************************************************************
     *              *               *               *               *   
   7 *  184  x151   *   184  x151   *   184  x151   *   184  x151   *   
     *              *               *               *               *   
     ****************************************************************
     *              *               *               *               *   
   6 *  184  x151   *   184  x151   *   184  x151   *   184  x151   *   
     *              *               *               *               *   
     ****************************************************************
     *              *               *               *               *   
   5 *  184  x151   *   184  x151   *   184  x151   *   184  x151   *   
     *              *               *               *               *   
     ****************************************************************
     *              *               *               *               *   
   4 *  184  x151   *   184  x151   *   184  x151   *   184  x151   *   
     *              *               *               *               *   
     ****************************************************************
     *              *               *               *               *   
   3 *  184  x151   *   184  x151   *   184  x151   *   184  x151   *   
     *              *               *               *               *   
     ****************************************************************
     *              *               *               *               *   
   2 *  184  x152   *   184  x152   *   184  x152   *   184  x152   *   
     *              *               *               *               *   
     ****************************************************************
     *              *               *               *               *   
   1 *  184  x152   *   184  x152   *   184  x152   *   184  x152   *   
     *              *               *               *               *   
     ****************************************************************
             1               2               3               4             
 
     ****************************************************************
     *              *               *               *               *   
   9 *  184  x151   *   184  x151   *   184  x151   *   184  x151   *   
     *              *               *               *               *   
     ****************************************************************
     *              *               *               *               *   
   8 *  184  x151   *   184  x151   *   184  x151   *   184  x151   *   
     *              *               *               *               *   
     ****************************************************************
     *              *               *               *               *   
   7 *  184  x151   *   184  x151   *   184  x151   *   184  x151   *   
     *              *               *               *               *   
     ****************************************************************
     *              *               *               *               *   
   6 *  184  x151   *   184  x151   *   184  x151   *   184  x151   *   
     *              *               *               *               *   
     ****************************************************************
     *              *               *               *               *   
   5 *  184  x151   *   184  x151   *   184  x151   *   184  x151   *   
     *              *               *               *               *   
     ****************************************************************
     *              *               *               *               *   
   4 *  184  x151   *   184  x151   *   184  x151   *   184  x151   *   
     *              *               *               *               *   
     ****************************************************************
     *              *               *               *               *   
   3 *  184  x151   *   184  x151   *   184  x151   *   184  x151   *   
     *              *               *               *               *   
     ****************************************************************
     *              *               *               *               *   
   2 *  184  x152   *   184  x152   *   184  x152   *   184  x152   *   
     *              *               *               *               *   
     ****************************************************************
     *              *               *               *               *   
   1 *  184  x152   *   184  x152   *   184  x152   *   184  x152   *   
     *              *               *               *               *   
     ****************************************************************
             5               6               7               8             
 
  sum ilcit(i,1) =  1458.  jpiglo =  1458
  sum ilcit(1,j) =  1345.  jpjglo =  1345
 
  nproc  =  0
  nowe   =  -1  noea   =   1
  nono   =  8  noso   =   -8
  nbondi =  -1
  nbondj =  -1
  npolj  =  0
  nperio =  0
  nlci   =  184
  nlcj   =  152
  nimpp  =  1
  njmpp  =  1
  nbse   =  0  npse   =  -7
  nbsw   =  0  npsw   =  -9
  nbne   =  1  npne   =  9
  nbnw   =  0  npnw   =  7
 
 mpp_init_ioipsl :   iloc  =  184,  152
 ~~~~~~~~~~~~~~~     iabsf =  2*1
                     ihals =  2*0
                     ihale =  2*1
      file   : timing.output                                                                    open ok
      unit   =  20
      status = REPLACE
      form   = FORMATTED
      access = SEQUENTIAL
 
 
  phy_cst : initialization of ocean parameters and constants
  ~~~~~~~
        Domain info
           dimension of model
                  Local domain      Global domain       Data domain 
               jpi     :     184   jpiglo  :    1458   jpidta  :    1458
               jpj     :     152   jpjglo  :    1345   jpjdta  :    1345
               jpk     :      51   jpk     :      51   jpkdta  :      51
               jpij    :  27968
           mpp local domain info (mpp)
              jpni    :  8    jpreci  :  1
              jpnj    :  9    jprecj  :  1
              jpnij   :  72
           lateral domain boundary condition type : jperio  =  0
 
        Constants
 
           mathematical constant                 rpi =  3.1415926535897931
 
           day                                rday   =  86400.  s
           sideral year                       rsiyea =  31558149.010110732  s
           sideral day                        rsiday =  86164.099655911836  s
           omega                              omega  =  7.29211508304606178E-5  s^-1
 
           nb of months per year               raamo =  12.  months
           nb of hours per day                 rjjhh =  24.  hours
           nb of minutes per hour              rhhmm =  60.  mn
           nb of seconds per minute            rmmss =  60.  s
 
           earth radius                         ra   =  6371229.  m
           gravity                              grav =  9.8066499999999994  m/s^2
 
           triple point of temperature      rtt      =  273.16000000000003  K
           freezing point of water          rt0      =  273.14999999999998  K
           melting point of snow            rt0_snow =  273.14999999999998  K
           melting point of ice             rt0_ice  =  273.05000000000001  K
           reference density and heat capacity now defined in eosbn2.f90
 
           thermal conductivity of the snow          =  0.22  J/s/m/K
           thermal conductivity of the ice           =  2.0343960000000001  J/s/m/K
           fresh ice specific heat                   =  2093.  J/kg/K
           latent heat of fusion of fresh ice / snow =  333700.  J/kg
           density times specific heat for snow      =  690690.  J/m^3/K
           density times specific heat for ice       =  1883700.  J/m^3/K
           volumetric latent heat fusion of sea ice  =  300330000.  J/m
           latent heat of sublimation of snow        =  2800000.  J/kg
           volumetric latent heat fusion of snow     =  110121000.  J/m^3
           density of sea ice                        =  900.  kg/m^3
           density of snow                           =  330.  kg/m^3
           emissivity of snow or ice                 =  0.96999999999999997
           salinity of ice                           =  6.  psu
           salinity of sea                           =  34.700000000000003  psu
           latent heat of evaporation (water)        =  2500000.  J/m^3
           correction factor for solar radiation     =  0.90000000000000002
           von Karman constant                       =  0.40000000000000002
           Stefan-Boltzmann constant                 =  5.66999999999999982E-8  J/s/m^2/K^4
 
           conversion: degre ==> radian          rad =  1.74532925199432955E-2
 
           smallest real computer value       rsmall =  1.11022302462515654E-16
 
 eos_init : equation of state
 ~~~~~~~~
           Namelist nameos : set eos parameters
              flag for eq. of state and N^2  nn_eos   =  0
              model uses Conservative Temperature
              Important: model must be initialized with CT and SA fields
 
           use of EOS-80 equation of state (pot. temp. and pract. salinity)
 
           volumic mass of reference           rau0  =  1020.  kg/m^3
           1. / rau0                        r1_rau0  =  9.80392156862745084E-4  m^3/kg
           ocean specific heat                 rcp   =  3991.8679571196299  J/Kelvin
           rau0 * rcp                       rau0_rcp =  4071705.3162620226
           1. / ( rau0 * rcp )           r1_rau0_rcp =  2.45597341243260046E-7
 
 dom_cfg : set the ocean configuration
 ~~~~~~~ 
    ocean model configuration used :   cp_cfg = amm                                                                                                                                                                                                                                                              jp_cfg =  11
    global domain lateral boundaries
       jperio= 0, closed
 
 dom_glo : domain: data / local 
 ~~~~~~~ 
           data input domain    : jpidta =  1458  jpjdta =  1345  jpkdta =  51
           global or zoom domain: jpiglo =  1458  jpjglo =  1345  jpk    =  51
           local domain         : jpi    =  184  jpj    =  152  jpk    =  51
 
           south-west indices    jpizoom =  1  jpjzoom =  1
 
           conversion local  ==> data i-index domain
             1   2   3   4   5   6   7   8   9  10  11  12  13  14  15  16  17  18  19
            20  21  22  23  24  25  26  27  28  29  30  31  32  33  34  35  36  37  38
            39  40  41  42  43  44  45  46  47  48  49  50  51  52  53  54  55  56  57
            58  59  60  61  62  63  64  65  66  67  68  69  70  71  72  73  74  75  76
            77  78  79  80  81  82  83  84  85  86  87  88  89  90  91  92  93  94  95
            96  97  98  99 100 101 102 103 104 105 106 107 108 109 110 111 112 113 114
           115 116 117 118 119 120 121 122 123 124 125 126 127 128 129 130 131 132 133
           134 135 136 137 138 139 140 141 142 143 144 145 146 147 148 149 150 151 152
           153 154 155 156 157 158 159 160 161 162 163 164 165 166 167 168 169 170 171
           172 173 174 175 176 177 178 179 180 181 182 183 184
 
           conversion data   ==> local  i-index domain
              starting index
             1   2   3   4   5   6   7   8   9  10  11  12  13  14  15  16  17  18  19
            20  21  22  23  24  25  26  27  28  29  30  31  32  33  34  35  36  37  38
            39  40  41  42  43  44  45  46  47  48  49  50  51  52  53  54  55  56  57
            58  59  60  61  62  63  64  65  66  67  68  69  70  71  72  73  74  75  76
            77  78  79  80  81  82  83  84  85  86  87  88  89  90  91  92  93  94  95
            96  97  98  99 100 101 102 103 104 105 106 107 108 109 110 111 112 113 114
           115 116 117 118 119 120 121 122 123 124 125 126 127 128 129 130 131 132 133
           134 135 136 137 138 139 140 141 142 143 144 145 146 147 148 149 150 151 152
           153 154 155 156 157 158 159 160 161 162 163 164 165 166 167 168 169 170 171
           172 173 174 175 176 177 178 179 180 181 182 183 184 185 185 185 185 185 185
           185 185 185 185 185 185 185 185 185 185 185 185 185 185 185 185 185 185 185
           185 185 185 185 185 185 185 185 185 185 185 185 185 185 185 185 185 185 185
           185 185 185 185 185 185 185 185 185 185 185 185 185 185 185 185 185 185 185
           185 185 185 185 185 185 185 185 185 185 185 185 185 185 185 185 185 185 185
           185 185 185 185 185 185 185 185 185 185 185 185 185 185 185 185 185 185 185
           185 185 185 185 185 185 185 185 185 185 185 185 185 185 185 185 185 185 185
           185 185 185 185 185 185 185 185 185 185 185 185 185 185 185 185 185 185 185
           185 185 185 185 185 185 185 185 185 185 185 185 185 185 185 185 185 185 185
           185 185 185 185 185 185 185 185 185 185 185 185 185 185 185 185 185 185 185
           185 185 185 185 185 185 185 185 185 185 185 185 185 185 185 185 185 185 185
           185 185 185 185 185 185 185 185 185 185 185 185 185 185 185 185 185 185 185
           185 185 185 185 185 185 185 185 185 185 185 185 185 185 185 185 185 185 185
           185 185 185 185 185 185 185 185 185 185 185 185 185 185 185 185 185 185 185
           185 185 185 185 185 185 185 185 185 185 185 185 185 185 185 185 185 185 185
           185 185 185 185 185 185 185 185 185 185 185 185 185 185 185 185 185 185 185
           185 185 185 185 185 185 185 185 185 185 185 185 185 185 185 185 185 185 185
           185 185 185 185 185 185 185 185 185 185 185 185 185 185 185 185 185 185 185
           185 185 185 185 185 185 185 185 185 185 185 185 185 185 185 185 185 185 185
           185 185 185 185 185 185 185 185 185 185 185 185 185 185 185 185 185 185 185
           185 185 185 185 185 185 185 185 185 185 185 185 185 185 185 185 185 185 185
           185 185 185 185 185 185 185 185 185 185 185 185 185 185 185 185 185 185 185
           185 185 185 185 185 185 185 185 185 185 185 185 185 185 185 185 185 185 185
           185 185 185 185 185 185 185 185 185 185 185 185 185 185 185 185 185 185 185
           185 185 185 185 185 185 185 185 185 185 185 185 185 185 185 185 185 185 185
           185 185 185 185 185 185 185 185 185 185 185 185 185 185 185 185 185 185 185
           185 185 185 185 185 185 185 185 185 185 185 185 185 185 185 185 185 185 185
           185 185 185 185 185 185 185 185 185 185 185 185 185 185 185 185 185 185 185
           185 185 185 185 185 185 185 185 185 185 185 185 185 185 185 185 185 185 185
           185 185 185 185 185 185 185 185 185 185 185 185 185 185 185 185 185 185 185
           185 185 185 185 185 185 185 185 185 185 185 185 185 185 185 185 185 185 185
           185 185 185 185 185 185 185 185 185 185 185 185 185 185 185 185 185 185 185
           185 185 185 185 185 185 185 185 185 185 185 185 185 185 185 185 185 185 185
           185 185 185 185 185 185 185 185 185 185 185 185 185 185 185 185 185 185 185
           185 185 185 185 185 185 185 185 185 185 185 185 185 185 185 185 185 185 185
           185 185 185 185 185 185 185 185 185 185 185 185 185 185 185 185 185 185 185
           185 185 185 185 185 185 185 185 185 185 185 185 185 185 185 185 185 185 185
           185 185 185 185 185 185 185 185 185 185 185 185 185 185 185 185 185 185 185
           185 185 185 185 185 185 185 185 185 185 185 185 185 185 185 185 185 185 185
           185 185 185 185 185 185 185 185 185 185 185 185 185 185 185 185 185 185 185
           185 185 185 185 185 185 185 185 185 185 185 185 185 185 185 185 185 185 185
           185 185 185 185 185 185 185 185 185 185 185 185 185 185 185 185 185 185 185
           185 185 185 185 185 185 185 185 185 185 185 185 185 185 185 185 185 185 185
           185 185 185 185 185 185 185 185 185 185 185 185 185 185 185 185 185 185 185
           185 185 185 185 185 185 185 185 185 185 185 185 185 185 185 185 185 185 185
           185 185 185 185 185 185 185 185 185 185 185 185 185 185 185 185 185 185 185
           185 185 185 185 185 185 185 185 185 185 185 185 185 185 185 185 185 185 185
           185 185 185 185 185 185 185 185 185 185 185 185 185 185 185 185 185 185 185
           185 185 185 185 185 185 185 185 185 185 185 185 185 185 185 185 185 185 185
           185 185 185 185 185 185 185 185 185 185 185 185 185 185 185 185 185 185 185
           185 185 185 185 185 185 185 185 185 185 185 185 185 185 185 185 185 185 185
           185 185 185 185 185 185 185 185 185 185 185 185 185 185 185 185 185 185 185
           185 185 185 185 185 185 185 185 185 185 185 185 185 185 185 185 185 185 185
           185 185 185 185 185 185 185 185 185 185 185 185 185 185 185 185 185 185 185
           185 185 185 185 185 185 185 185 185 185 185 185 185 185 185 185 185 185 185
           185 185 185 185 185 185 185 185 185 185 185 185 185 185 185 185 185 185 185
           185 185 185 185 185 185 185 185 185 185 185 185 185 185 185 185 185 185 185
           185 185 185 185 185 185 185 185 185 185 185 185 185 185 185 185 185 185 185
           185 185 185 185 185 185 185 185 185 185 185 185 185 185 185 185 185 185 185
           185 185 185 185 185 185 185 185 185 185 185 185 185 185 185 185 185 185 185
           185 185 185 185 185 185 185 185 185 185 185 185 185 185 185 185 185 185 185
           185 185 185 185 185 185 185 185 185 185 185 185 185 185 185 185 185 185 185
           185 185 185 185 185 185 185 185 185 185 185 185 185 185 185 185 185 185 185
           185 185 185 185 185 185 185 185 185 185 185 185 185 185 185 185 185 185 185
           185 185 185 185 185 185 185 185 185 185 185 185 185 185 185 185 185 185 185
           185 185 185 185 185 185 185 185 185 185 185 185 185 185 185 185 185 185 185
           185 185 185 185 185 185 185 185 185 185 185 185 185 185 185 185 185 185 185
           185 185 185 185 185 185 185 185 185 185 185 185 185 185
              ending index
             1   2   3   4   5   6   7   8   9  10  11  12  13  14  15  16  17  18  19
            20  21  22  23  24  25  26  27  28  29  30  31  32  33  34  35  36  37  38
            39  40  41  42  43  44  45  46  47  48  49  50  51  52  53  54  55  56  57
            58  59  60  61  62  63  64  65  66  67  68  69  70  71  72  73  74  75  76
            77  78  79  80  81  82  83  84  85  86  87  88  89  90  91  92  93  94  95
            96  97  98  99 100 101 102 103 104 105 106 107 108 109 110 111 112 113 114
           115 116 117 118 119 120 121 122 123 124 125 126 127 128 129 130 131 132 133
           134 135 136 137 138 139 140 141 142 143 144 145 146 147 148 149 150 151 152
           153 154 155 156 157 158 159 160 161 162 163 164 165 166 167 168 169 170 171
           172 173 174 175 176 177 178 179 180 181 182 183 184 184 184 184 184 184 184
           184 184 184 184 184 184 184 184 184 184 184 184 184 184 184 184 184 184 184
           184 184 184 184 184 184 184 184 184 184 184 184 184 184 184 184 184 184 184
           184 184 184 184 184 184 184 184 184 184 184 184 184 184 184 184 184 184 184
           184 184 184 184 184 184 184 184 184 184 184 184 184 184 184 184 184 184 184
           184 184 184 184 184 184 184 184 184 184 184 184 184 184 184 184 184 184 184
           184 184 184 184 184 184 184 184 184 184 184 184 184 184 184 184 184 184 184
           184 184 184 184 184 184 184 184 184 184 184 184 184 184 184 184 184 184 184
           184 184 184 184 184 184 184 184 184 184 184 184 184 184 184 184 184 184 184
           184 184 184 184 184 184 184 184 184 184 184 184 184 184 184 184 184 184 184
           184 184 184 184 184 184 184 184 184 184 184 184 184 184 184 184 184 184 184
           184 184 184 184 184 184 184 184 184 184 184 184 184 184 184 184 184 184 184
           184 184 184 184 184 184 184 184 184 184 184 184 184 184 184 184 184 184 184
           184 184 184 184 184 184 184 184 184 184 184 184 184 184 184 184 184 184 184
           184 184 184 184 184 184 184 184 184 184 184 184 184 184 184 184 184 184 184
           184 184 184 184 184 184 184 184 184 184 184 184 184 184 184 184 184 184 184
           184 184 184 184 184 184 184 184 184 184 184 184 184 184 184 184 184 184 184
           184 184 184 184 184 184 184 184 184 184 184 184 184 184 184 184 184 184 184
           184 184 184 184 184 184 184 184 184 184 184 184 184 184 184 184 184 184 184
           184 184 184 184 184 184 184 184 184 184 184 184 184 184 184 184 184 184 184
           184 184 184 184 184 184 184 184 184 184 184 184 184 184 184 184 184 184 184
           184 184 184 184 184 184 184 184 184 184 184 184 184 184 184 184 184 184 184
           184 184 184 184 184 184 184 184 184 184 184 184 184 184 184 184 184 184 184
           184 184 184 184 184 184 184 184 184 184 184 184 184 184 184 184 184 184 184
           184 184 184 184 184 184 184 184 184 184 184 184 184 184 184 184 184 184 184
           184 184 184 184 184 184 184 184 184 184 184 184 184 184 184 184 184 184 184
           184 184 184 184 184 184 184 184 184 184 184 184 184 184 184 184 184 184 184
           184 184 184 184 184 184 184 184 184 184 184 184 184 184 184 184 184 184 184
           184 184 184 184 184 184 184 184 184 184 184 184 184 184 184 184 184 184 184
           184 184 184 184 184 184 184 184 184 184 184 184 184 184 184 184 184 184 184
           184 184 184 184 184 184 184 184 184 184 184 184 184 184 184 184 184 184 184
           184 184 184 184 184 184 184 184 184 184 184 184 184 184 184 184 184 184 184
           184 184 184 184 184 184 184 184 184 184 184 184 184 184 184 184 184 184 184
           184 184 184 184 184 184 184 184 184 184 184 184 184 184 184 184 184 184 184
           184 184 184 184 184 184 184 184 184 184 184 184 184 184 184 184 184 184 184
           184 184 184 184 184 184 184 184 184 184 184 184 184 184 184 184 184 184 184
           184 184 184 184 184 184 184 184 184 184 184 184 184 184 184 184 184 184 184
           184 184 184 184 184 184 184 184 184 184 184 184 184 184 184 184 184 184 184
           184 184 184 184 184 184 184 184 184 184 184 184 184 184 184 184 184 184 184
           184 184 184 184 184 184 184 184 184 184 184 184 184 184 184 184 184 184 184
           184 184 184 184 184 184 184 184 184 184 184 184 184 184 184 184 184 184 184
           184 184 184 184 184 184 184 184 184 184 184 184 184 184 184 184 184 184 184
           184 184 184 184 184 184 184 184 184 184 184 184 184 184 184 184 184 184 184
           184 184 184 184 184 184 184 184 184 184 184 184 184 184 184 184 184 184 184
           184 184 184 184 184 184 184 184 184 184 184 184 184 184 184 184 184 184 184
           184 184 184 184 184 184 184 184 184 184 184 184 184 184 184 184 184 184 184
           184 184 184 184 184 184 184 184 184 184 184 184 184 184 184 184 184 184 184
           184 184 184 184 184 184 184 184 184 184 184 184 184 184 184 184 184 184 184
           184 184 184 184 184 184 184 184 184 184 184 184 184 184 184 184 184 184 184
           184 184 184 184 184 184 184 184 184 184 184 184 184 184 184 184 184 184 184
           184 184 184 184 184 184 184 184 184 184 184 184 184 184 184 184 184 184 184
           184 184 184 184 184 184 184 184 184 184 184 184 184 184 184 184 184 184 184
           184 184 184 184 184 184 184 184 184 184 184 184 184 184 184 184 184 184 184
           184 184 184 184 184 184 184 184 184 184 184 184 184 184 184 184 184 184 184
           184 184 184 184 184 184 184 184 184 184 184 184 184 184 184 184 184 184 184
           184 184 184 184 184 184 184 184 184 184 184 184 184 184 184 184 184 184 184
           184 184 184 184 184 184 184 184 184 184 184 184 184 184 184 184 184 184 184
           184 184 184 184 184 184 184 184 184 184 184 184 184 184 184 184 184 184 184
           184 184 184 184 184 184 184 184 184 184 184 184 184 184 184 184 184 184 184
           184 184 184 184 184 184 184 184 184 184 184 184 184 184 184 184 184 184 184
           184 184 184 184 184 184 184 184 184 184 184 184 184 184 184 184 184 184 184
           184 184 184 184 184 184 184 184 184 184 184 184 184 184 184 184 184 184 184
           184 184 184 184 184 184 184 184 184 184 184 184 184 184 184 184 184 184 184
           184 184 184 184 184 184 184 184 184 184 184 184 184 184 184 184 184 184 184
           184 184 184 184 184 184 184 184 184 184 184 184 184 184 184 184 184 184 184
           184 184 184 184 184 184 184 184 184 184 184 184 184 184 184 184 184 184 184
           184 184 184 184 184 184 184 184 184 184 184 184 184 184 184 184 184 184 184
           184 184 184 184 184 184 184 184 184 184 184 184 184 184
 
           conversion local  ==> data j-index domain
             1   2   3   4   5   6   7   8   9  10  11  12  13  14  15  16  17  18  19
            20  21  22  23  24  25  26  27  28  29  30  31  32  33  34  35  36  37  38
            39  40  41  42  43  44  45  46  47  48  49  50  51  52  53  54  55  56  57
            58  59  60  61  62  63  64  65  66  67  68  69  70  71  72  73  74  75  76
            77  78  79  80  81  82  83  84  85  86  87  88  89  90  91  92  93  94  95
            96  97  98  99 100 101 102 103 104 105 106 107 108 109 110 111 112 113 114
           115 116 117 118 119 120 121 122 123 124 125 126 127 128 129 130 131 132 133
           134 135 136 137 138 139 140 141 142 143 144 145 146 147 148 149 150 151 152

 
           conversion data  ==> local j-index domain
              starting index
             1   2   3   4   5   6   7   8   9  10  11  12  13  14  15  16  17  18  19
            20  21  22  23  24  25  26  27  28  29  30  31  32  33  34  35  36  37  38
            39  40  41  42  43  44  45  46  47  48  49  50  51  52  53  54  55  56  57
            58  59  60  61  62  63  64  65  66  67  68  69  70  71  72  73  74  75  76
            77  78  79  80  81  82  83  84  85  86  87  88  89  90  91  92  93  94  95
            96  97  98  99 100 101 102 103 104 105 106 107 108 109 110 111 112 113 114
           115 116 117 118 119 120 121 122 123 124 125 126 127 128 129 130 131 132 133
           134 135 136 137 138 139 140 141 142 143 144 145 146 147 148 149 150 151 152
           153 153 153 153 153 153 153 153 153 153 153 153 153 153 153 153 153 153 153
           153 153 153 153 153 153 153 153 153 153 153 153 153 153 153 153 153 153 153
           153 153 153 153 153 153 153 153 153 153 153 153 153 153 153 153 153 153 153
           153 153 153 153 153 153 153 153 153 153 153 153 153 153 153 153 153 153 153
           153 153 153 153 153 153 153 153 153 153 153 153 153 153 153 153 153 153 153
           153 153 153 153 153 153 153 153 153 153 153 153 153 153 153 153 153 153 153
           153 153 153 153 153 153 153 153 153 153 153 153 153 153 153 153 153 153 153
           153 153 153 153 153 153 153 153 153 153 153 153 153 153 153 153 153 153 153
           153 153 153 153 153 153 153 153 153 153 153 153 153 153 153 153 153 153 153
           153 153 153 153 153 153 153 153 153 153 153 153 153 153 153 153 153 153 153
           153 153 153 153 153 153 153 153 153 153 153 153 153 153 153 153 153 153 153
           153 153 153 153 153 153 153 153 153 153 153 153 153 153 153 153 153 153 153
           153 153 153 153 153 153 153 153 153 153 153 153 153 153 153 153 153 153 153
           153 153 153 153 153 153 153 153 153 153 153 153 153 153 153 153 153 153 153
           153 153 153 153 153 153 153 153 153 153 153 153 153 153 153 153 153 153 153
           153 153 153 153 153 153 153 153 153 153 153 153 153 153 153 153 153 153 153
           153 153 153 153 153 153 153 153 153 153 153 153 153 153 153 153 153 153 153
           153 153 153 153 153 153 153 153 153 153 153 153 153 153 153 153 153 153 153
           153 153 153 153 153 153 153 153 153 153 153 153 153 153 153 153 153 153 153
           153 153 153 153 153 153 153 153 153 153 153 153 153 153 153 153 153 153 153
           153 153 153 153 153 153 153 153 153 153 153 153 153 153 153 153 153 153 153
           153 153 153 153 153 153 153 153 153 153 153 153 153 153 153 153 153 153 153
           153 153 153 153 153 153 153 153 153 153 153 153 153 153 153 153 153 153 153
           153 153 153 153 153 153 153 153 153 153 153 153 153 153 153 153 153 153 153
           153 153 153 153 153 153 153 153 153 153 153 153 153 153 153 153 153 153 153
           153 153 153 153 153 153 153 153 153 153 153 153 153 153 153 153 153 153 153
           153 153 153 153 153 153 153 153 153 153 153 153 153 153 153 153 153 153 153
           153 153 153 153 153 153 153 153 153 153 153 153 153 153 153 153 153 153 153
           153 153 153 153 153 153 153 153 153 153 153 153 153 153 153 153 153 153 153
           153 153 153 153 153 153 153 153 153 153 153 153 153 153 153 153 153 153 153
           153 153 153 153 153 153 153 153 153 153 153 153 153 153 153 153 153 153 153
           153 153 153 153 153 153 153 153 153 153 153 153 153 153 153 153 153 153 153
           153 153 153 153 153 153 153 153 153 153 153 153 153 153 153 153 153 153 153
           153 153 153 153 153 153 153 153 153 153 153 153 153 153 153 153 153 153 153
           153 153 153 153 153 153 153 153 153 153 153 153 153 153 153 153 153 153 153
           153 153 153 153 153 153 153 153 153 153 153 153 153 153 153 153 153 153 153
           153 153 153 153 153 153 153 153 153 153 153 153 153 153 153 153 153 153 153
           153 153 153 153 153 153 153 153 153 153 153 153 153 153 153 153 153 153 153
           153 153 153 153 153 153 153 153 153 153 153 153 153 153 153 153 153 153 153
           153 153 153 153 153 153 153 153 153 153 153 153 153 153 153 153 153 153 153
           153 153 153 153 153 153 153 153 153 153 153 153 153 153 153 153 153 153 153
           153 153 153 153 153 153 153 153 153 153 153 153 153 153 153 153 153 153 153
           153 153 153 153 153 153 153 153 153 153 153 153 153 153 153 153 153 153 153
           153 153 153 153 153 153 153 153 153 153 153 153 153 153 153 153 153 153 153
           153 153 153 153 153 153 153 153 153 153 153 153 153 153 153 153 153 153 153
           153 153 153 153 153 153 153 153 153 153 153 153 153 153 153 153 153 153 153
           153 153 153 153 153 153 153 153 153 153 153 153 153 153 153 153 153 153 153
           153 153 153 153 153 153 153 153 153 153 153 153 153 153 153 153 153 153 153
           153 153 153 153 153 153 153 153 153 153 153 153 153 153 153 153 153 153 153
           153 153 153 153 153 153 153 153 153 153 153 153 153 153 153 153 153 153 153
           153 153 153 153 153 153 153 153 153 153 153 153 153 153 153 153 153 153 153
           153 153 153 153 153 153 153 153 153 153 153 153 153 153 153 153 153 153 153
           153 153 153 153 153 153 153 153 153 153 153 153 153 153 153 153 153 153 153
           153 153 153 153 153 153 153 153 153 153 153 153 153 153 153 153 153 153 153
           153 153 153 153 153 153 153 153 153 153 153 153 153 153 153 153 153 153 153
           153 153 153 153 153 153 153 153 153 153 153 153 153 153 153 153 153 153 153
           153 153 153 153 153 153 153 153 153 153 153 153 153 153 153 153 153 153 153
           153 153 153 153 153 153 153 153 153 153 153 153 153 153 153 153 153 153 153
           153 153 153 153 153 153 153 153 153 153 153 153 153 153 153 153 153 153 153
           153 153 153 153 153 153 153 153 153 153 153 153 153 153 153 153 153 153 153
           153 153 153 153 153 153 153 153 153 153 153 153 153 153 153 153 153 153 153
           153 153 153 153 153 153 153 153 153 153 153 153 153 153 153 153 153 153 153
           153 153 153 153 153 153 153 153 153 153 153 153 153 153 153
              ending index
             1   2   3   4   5   6   7   8   9  10  11  12  13  14  15  16  17  18  19
            20  21  22  23  24  25  26  27  28  29  30  31  32  33  34  35  36  37  38
            39  40  41  42  43  44  45  46  47  48  49  50  51  52  53  54  55  56  57
            58  59  60  61  62  63  64  65  66  67  68  69  70  71  72  73  74  75  76
            77  78  79  80  81  82  83  84  85  86  87  88  89  90  91  92  93  94  95
            96  97  98  99 100 101 102 103 104 105 106 107 108 109 110 111 112 113 114
           115 116 117 118 119 120 121 122 123 124 125 126 127 128 129 130 131 132 133
           134 135 136 137 138 139 140 141 142 143 144 145 146 147 148 149 150 151 152
           152 152 152 152 152 152 152 152 152 152 152 152 152 152 152 152 152 152 152
           152 152 152 152 152 152 152 152 152 152 152 152 152 152 152 152 152 152 152
           152 152 152 152 152 152 152 152 152 152 152 152 152 152 152 152 152 152 152
           152 152 152 152 152 152 152 152 152 152 152 152 152 152 152 152 152 152 152
           152 152 152 152 152 152 152 152 152 152 152 152 152 152 152 152 152 152 152
           152 152 152 152 152 152 152 152 152 152 152 152 152 152 152 152 152 152 152
           152 152 152 152 152 152 152 152 152 152 152 152 152 152 152 152 152 152 152
           152 152 152 152 152 152 152 152 152 152 152 152 152 152 152 152 152 152 152
           152 152 152 152 152 152 152 152 152 152 152 152 152 152 152 152 152 152 152
           152 152 152 152 152 152 152 152 152 152 152 152 152 152 152 152 152 152 152
           152 152 152 152 152 152 152 152 152 152 152 152 152 152 152 152 152 152 152
           152 152 152 152 152 152 152 152 152 152 152 152 152 152 152 152 152 152 152
           152 152 152 152 152 152 152 152 152 152 152 152 152 152 152 152 152 152 152
           152 152 152 152 152 152 152 152 152 152 152 152 152 152 152 152 152 152 152
           152 152 152 152 152 152 152 152 152 152 152 152 152 152 152 152 152 152 152
           152 152 152 152 152 152 152 152 152 152 152 152 152 152 152 152 152 152 152
           152 152 152 152 152 152 152 152 152 152 152 152 152 152 152 152 152 152 152
           152 152 152 152 152 152 152 152 152 152 152 152 152 152 152 152 152 152 152
           152 152 152 152 152 152 152 152 152 152 152 152 152 152 152 152 152 152 152
           152 152 152 152 152 152 152 152 152 152 152 152 152 152 152 152 152 152 152
           152 152 152 152 152 152 152 152 152 152 152 152 152 152 152 152 152 152 152
           152 152 152 152 152 152 152 152 152 152 152 152 152 152 152 152 152 152 152
           152 152 152 152 152 152 152 152 152 152 152 152 152 152 152 152 152 152 152
           152 152 152 152 152 152 152 152 152 152 152 152 152 152 152 152 152 152 152
           152 152 152 152 152 152 152 152 152 152 152 152 152 152 152 152 152 152 152
           152 152 152 152 152 152 152 152 152 152 152 152 152 152 152 152 152 152 152
           152 152 152 152 152 152 152 152 152 152 152 152 152 152 152 152 152 152 152
           152 152 152 152 152 152 152 152 152 152 152 152 152 152 152 152 152 152 152
           152 152 152 152 152 152 152 152 152 152 152 152 152 152 152 152 152 152 152
           152 152 152 152 152 152 152 152 152 152 152 152 152 152 152 152 152 152 152
           152 152 152 152 152 152 152 152 152 152 152 152 152 152 152 152 152 152 152
           152 152 152 152 152 152 152 152 152 152 152 152 152 152 152 152 152 152 152
           152 152 152 152 152 152 152 152 152 152 152 152 152 152 152 152 152 152 152
           152 152 152 152 152 152 152 152 152 152 152 152 152 152 152 152 152 152 152
           152 152 152 152 152 152 152 152 152 152 152 152 152 152 152 152 152 152 152
           152 152 152 152 152 152 152 152 152 152 152 152 152 152 152 152 152 152 152
           152 152 152 152 152 152 152 152 152 152 152 152 152 152 152 152 152 152 152
           152 152 152 152 152 152 152 152 152 152 152 152 152 152 152 152 152 152 152
           152 152 152 152 152 152 152 152 152 152 152 152 152 152 152 152 152 152 152
           152 152 152 152 152 152 152 152 152 152 152 152 152 152 152 152 152 152 152
           152 152 152 152 152 152 152 152 152 152 152 152 152 152 152 152 152 152 152
           152 152 152 152 152 152 152 152 152 152 152 152 152 152 152 152 152 152 152
           152 152 152 152 152 152 152 152 152 152 152 152 152 152 152 152 152 152 152
           152 152 152 152 152 152 152 152 152 152 152 152 152 152 152 152 152 152 152
           152 152 152 152 152 152 152 152 152 152 152 152 152 152 152 152 152 152 152
           152 152 152 152 152 152 152 152 152 152 152 152 152 152 152 152 152 152 152
           152 152 152 152 152 152 152 152 152 152 152 152 152 152 152 152 152 152 152
           152 152 152 152 152 152 152 152 152 152 152 152 152 152 152 152 152 152 152
           152 152 152 152 152 152 152 152 152 152 152 152 152 152 152 152 152 152 152
           152 152 152 152 152 152 152 152 152 152 152 152 152 152 152 152 152 152 152
           152 152 152 152 152 152 152 152 152 152 152 152 152 152 152 152 152 152 152
           152 152 152 152 152 152 152 152 152 152 152 152 152 152 152 152 152 152 152
           152 152 152 152 152 152 152 152 152 152 152 152 152 152 152 152 152 152 152
           152 152 152 152 152 152 152 152 152 152 152 152 152 152 152 152 152 152 152
           152 152 152 152 152 152 152 152 152 152 152 152 152 152 152 152 152 152 152
           152 152 152 152 152 152 152 152 152 152 152 152 152 152 152 152 152 152 152
           152 152 152 152 152 152 152 152 152 152 152 152 152 152 152 152 152 152 152
           152 152 152 152 152 152 152 152 152 152 152 152 152 152 152 152 152 152 152
           152 152 152 152 152 152 152 152 152 152 152 152 152 152 152 152 152 152 152
           152 152 152 152 152 152 152 152 152 152 152 152 152 152 152 152 152 152 152
           152 152 152 152 152 152 152 152 152 152 152 152 152 152 152 152 152 152 152
           152 152 152 152 152 152 152 152 152 152 152 152 152 152 152 152 152 152 152
           152 152 152 152 152 152 152 152 152 152 152 152 152 152 152
 
           zoom flags : 
              lzoom   =  F  (T = zoom, F = global )
              lzoom_e =  F  (T = forced closed east  boundary)
              lzoom_w =  F  (T = forced closed west  boundary)
              lzoom_s =  F  (T = forced closed South boundary)
              lzoom_n =  F  (T = forced closed North boundary)
 
 dom_init : domain initialization
 ~~~~~~~~
 
 dom_nam  : domain initialization through namelist read
 ~~~~~~~ 
    Namelist namrun
       job number                      nn_no      =  0
       experiment name for output      cn_exp     = co7                                                                                                                                                                                                                                                             
       file prefix restart input       cn_ocerst_in= restart                                                                                                                                                                                                                                                         
       restart input directory         cn_ocerst_indir= ./                                                                                                                                                                                                                                                              
       file prefix restart output      cn_ocerst_out= restart                                                                                                                                                                                                                                                         
       restart output directory        cn_ocerst_outdir= /home/d01/fred/cylc-run/mi-bc751/share/data/History_Data/NEMOhist/                                                                                                                                                                                              
       restart logical                 ln_rstart  =  F
       datestamping of restarts        ln_rstdate  =  T
       start with forward time step    nn_euler   =  1
       control of time step            nn_rstctl  =  0
       number of the first time step   nn_it000   =  1
       number of the last time step    nn_itend   =  1440
       initial calendar date aammjj    nn_date0   =  20111230
       leap year calendar (0/1)        nn_leapy   =  1
       initial state output            nn_istate  =  0
       frequency of restart file       nn_stock   =  1440
       frequency of output file        nn_write   =  1440
       multi file dimgout              ln_dimgnnn =  F
       mask land points                ln_mskland =  F
       additional CF standard metadata ln_cfmeta  =  F
       overwrite an existing file      ln_clobber =  T
       NetCDF chunksize (bytes)        nn_chunksz =  0

 ===>>> : W A R N I N G
         ===============

  ln_rstart =.FALSE., nn_euler is forced to 0                                                                                                                                                                                                                    
    The IOIPSL calendar is "gregorian", i.e. leap year
 
    Namelist namdom : space & time domain
       flag read/compute bathymetry      nn_bathy     =  1
       Depth (if =0 bathy=jpkm1)         rn_bathy     =  100.
       WAD Reference depth)              rn_wd_ref_depth     =  10.
       min depth of the ocean    (>0) or    rn_hmin   =  -3.
       min number of ocean level (<0)       
       minimum thickness of partial      rn_e3zps_min =  20.  (m)
          step level                     rn_e3zps_rat =  0.10000000000000001
       create mesh/mask file(s)          nn_msh       =  1
            = 0   no file created           
            = 1   mesh_mask                 
            = 2   mesh and mask             
            = 3   mesh_hgr, msh_zgr and mask
       ocean time step                       rn_rdt    =  60.
       asselin time filter parameter         rn_atfp   =  0.10000000000000001
       acceleration of converge              nn_acc    =  0
         nn_acc=1: surface tracer rdt        rn_rdtmin =  28800.
                   bottom  tracer rdt        rdtmax    =  28800.
                   depth of transition       rn_rdth   =  800.
       suppression of closed seas (=0)       nn_closea =  0
       online coarsening of dynamical fields ln_crs    =  F
       type of horizontal mesh jphgr_msh           =  0
       longitude of first raw and column T-point ppglam0 =  999999.
       latitude  of first raw and column T-point ppgphi0 =  999999.
       zonal      grid-spacing (degrees) ppe1_deg        =  999999.
       meridional grid-spacing (degrees) ppe2_deg        =  999999.
       zonal      grid-spacing (degrees) ppe1_m          =  999999.
       meridional grid-spacing (degrees) ppe2_m          =  999999.
       ORCA r4, r2 and r05 coefficients  ppsur           =  999999.
                                         ppa0            =  999999.
                                         ppa1            =  999999.
                                         ppkth           =  23.562999999999999
                                         ppacr           =  9.
       Minimum vertical spacing ppdzmin                  =  6.
       Maximum depth pphmax                              =  5720.
       Use double tanf function for vertical coordinates ldbletanh =  F
       Double tanh function parameters ppa2              =  999999.
                                       ppkth2            =  999999.
                                       ppacr2            =  999999.
 
    Namelist namcla
       cross land advection                 nn_cla    =  0
 
 dom_clo : closed seas 
 ~~~~~~~
 
 dom_hgr : define the horizontal mesh from ithe following par_oce parameters 
 ~~~~~~~      type of horizontal mesh           jphgr_msh =  0
              position of the first row and     ppglam0  =  999999.
              column grid-point (degrees)       ppgphi0  =  999999.
              zonal      grid-spacing (degrees) ppe1_deg =  999999.
              meridional grid-spacing (degrees) ppe2_deg =  999999.
              zonal      grid-spacing (meters)  ppe1_m   =  999999.
              meridional grid-spacing (meters)  ppe2_m   =  999999.
 
           curvilinear coordinate on the sphere read in "coordinate" file
 
 hgr_read : read the horizontal coordinates
 ~~~~~~~~      jpiglo =  1458  jpjglo =  1345  jpk =  51
                     iom_nf90_open ~~~ open existing file: coordinates.nc in READ mode
                    ---> coordinates.nc OK
           read glamt (rec:      1) in coordinates.nc ok
           read glamu (rec:      1) in coordinates.nc ok
           read glamv (rec:      1) in coordinates.nc ok
           read glamf (rec:      1) in coordinates.nc ok
           read gphit (rec:      1) in coordinates.nc ok
           read gphiu (rec:      1) in coordinates.nc ok
           read gphiv (rec:      1) in coordinates.nc ok
           read gphif (rec:      1) in coordinates.nc ok
           read e1t (rec:      1) in coordinates.nc ok
           read e1u (rec:      1) in coordinates.nc ok
           read e1v (rec:      1) in coordinates.nc ok
           read e1f (rec:      1) in coordinates.nc ok
           read e2t (rec:      1) in coordinates.nc ok
           read e2u (rec:      1) in coordinates.nc ok
           read e2v (rec:      1) in coordinates.nc ok
           read e2f (rec:      1) in coordinates.nc ok
                     iom_close ~~~ close file: coordinates.nc ok
 
           longitude and e1 scale factors
           ------------------------------
    1  -17.62   -17.61   -17.62   -17.61     1489.0368652344     1489.0593261719     1489.0593261719     1489.0593261719
   11  -17.43   -17.43   -17.44   -17.43     1489.0368652344     1489.0593261719     1489.0593261719     1489.0593261719
   21  -17.25   -17.24   -17.25   -17.24     1489.0368652344     1489.0593261719     1489.0593261719     1489.0593261719
   31  -17.07   -17.06   -17.07   -17.06     1489.0368652344     1489.0593261719     1489.0593261719     1489.0593261719
   41  -16.89   -16.88   -16.89   -16.88     1489.0368652344     1489.0593261719     1489.0593261719     1489.0593261719
   51  -16.70   -16.69   -16.70   -16.70     1489.0368652344     1489.0593261719     1489.0593261719     1489.0593261719
   61  -16.52   -16.51   -16.52   -16.51     1489.0368652344     1489.0593261719     1489.0593261719     1489.0593261719
   71  -16.34   -16.33   -16.34   -16.33     1489.0368652344     1489.0593261719     1489.0593261719     1489.0593261719
   81  -16.15   -16.14   -16.15   -16.15     1489.0368652344     1489.0593261719     1489.0593261719     1489.0593261719
   91  -15.97   -15.96   -15.97   -15.96     1489.0368652344     1489.0593261719     1489.0593261719     1489.0593261719
  101  -15.79   -15.78   -15.79   -15.78     1489.0368652344     1489.0593261719     1489.0593261719     1489.0593261719
  111  -15.60   -15.59   -15.60   -15.59     1489.0368652344     1489.0593261719     1489.0593261719     1489.0593261719
  121  -15.42   -15.41   -15.42   -15.41     1489.0368652344     1489.0593261719     1489.0593261719     1489.0593261719
  131  -15.23   -15.22   -15.23   -15.22     1489.0368652344     1489.0593261719     1489.0593261719     1489.0593261719
  141  -15.05   -15.04   -15.05   -15.04     1489.0368652344     1489.0593261719     1489.0593261719     1489.0593261719
  151  -14.86   -14.85   -14.86   -14.86     1489.0368652344     1489.0593261719     1489.0593261719     1489.0593261719
  161  -14.68   -14.67   -14.68   -14.67     1489.0368652344     1489.0593261719     1489.0593261719     1489.0593261719
  171  -14.49   -14.48   -14.49   -14.49     1489.0368652344     1489.0593261719     1489.0593261719     1489.0593261719
  181  -14.31   -14.30   -14.31   -14.30     1489.0368652344     1489.0593261719     1489.0593261719     1489.0593261719
 
           latitude and e2 scale factors
           -----------------------------
    1   44.06    44.07    44.07    44.07     1501.1854248047     1501.1854248047     1501.1854248047     1501.1854248047
   11   44.20    44.20    44.20    44.20     1501.1854248047     1501.1854248047     1501.1854248047     1501.1854248047
   21   44.33    44.33    44.34    44.34     1501.1854248047     1501.1854248047     1501.1854248047     1501.1854248047
   31   44.46    44.46    44.47    44.47     1501.1854248047     1501.1854248047     1501.1854248047     1501.1854248047
   41   44.59    44.59    44.60    44.60     1501.1854248047     1501.1854248047     1501.1854248047     1501.1854248047
   51   44.72    44.73    44.73    44.73     1501.1854248047     1501.1854248047     1501.1854248047     1501.1854248047
   61   44.86    44.86    44.86    44.86     1501.1854248047     1501.1854248047     1501.1854248047     1501.1854248047
   71   44.99    44.99    45.00    45.00     1501.1854248047     1501.1854248047     1501.1854248047     1501.1854248047
   81   45.12    45.12    45.13    45.13     1501.1854248047     1501.1854248047     1501.1854248047     1501.1854248047
   91   45.25    45.25    45.26    45.26     1501.1854248047     1501.1854248047     1501.1854248047     1501.1854248047
  101   45.38    45.39    45.39    45.39     1501.1854248047     1501.1854248047     1501.1854248047     1501.1854248047
  111   45.52    45.52    45.52    45.52     1501.1854248047     1501.1854248047     1501.1854248047     1501.1854248047
  121   45.65    45.65    45.65    45.66     1501.1854248047     1501.1854248047     1501.1854248047     1501.1854248047
  131   45.78    45.78    45.79    45.79     1501.1854248047     1501.1854248047     1501.1854248047     1501.1854248047
  141   45.91    45.91    45.92    45.92     1501.1854248047     1501.1854248047     1501.1854248047     1501.1854248047
  151   46.04    46.05    46.05    46.05     1501.1854248047     1501.1854248047     1501.1854248047     1501.1854248047
 
 dom_zgr : vertical coordinate
 ~~~~~~~
           Namelist namzgr : set vertical coordinate
              z-coordinate - full steps      ln_zco    =  F
              z-coordinate - partial steps   ln_zps    =  F
              s- or hybrid z-s-coordinate    ln_sco    =  T
              ice shelf cavities             ln_isfcav =  F
 
     zgr_z   : Reference vertical z-coordinates
     ~~~~~~~
            Value of coefficients for vertical mesh:
                  zsur =  -1743.922645500526
                  za0  =  104.72622118274212
                  za1  =  100.04692422373907
                  zkth =  23.562999999999999
                  zacr =  9.
 
               Reference z-coordinate depth and scale factors:
          level  gdept_1d  gdepw_1d  e3t_1d   e3w_1d  
             1     3.04     0.00     6.15     6.00
             2     9.37     6.16     6.52     6.33
             3    16.10    12.68     6.97     6.73
             4    23.34    19.65     7.53     7.24
             5    31.21    27.19     8.23     7.86
             6    39.86    35.43     9.09     8.64
             7    49.47    44.53    10.16     9.60
             8    60.26    54.70    11.48    10.79
             9    72.52    66.19    13.10    12.25
            10    86.58    79.31    15.09    14.04
            11   102.84    94.41    17.51    16.24
            12   121.78   111.94    20.45    18.91
            13   143.95   132.42    24.00    22.14
            14   170.00   156.45    28.24    26.03
            15   200.69   184.72    33.26    30.65
            16   236.82   218.02    39.15    36.10
            17   279.30   257.21    45.96    42.44
            18   329.05   303.21    53.72    49.72
            19   387.04   356.96    62.40    57.94
            20   454.13   419.39    71.93    67.07
            21   531.14   491.36    82.19    76.98
            22   618.68   573.56    92.96    87.52
            23   717.17   666.54   104.03    98.48
            24   826.74   770.57   115.10   109.58
            25   947.29   885.66   125.93   120.57
            26  1078.44  1011.57   136.26   131.17
            27  1219.58  1147.81   145.90   141.18
            28  1369.95  1293.67   154.69   150.41
            29  1528.66  1448.32   162.57   158.75
            30  1694.77  1610.85   169.49   166.15
            31  1867.34  1780.31   175.50   172.61
            32  2045.47  1955.77   180.63   178.17
            33  2228.33  2136.36   184.96   182.89
            34  2415.16  2321.29   188.59   186.86
            35  2605.30  2509.86   191.60   190.17
            36  2798.19  2701.44   194.09   192.90
            37  2993.33  2895.50   196.12   195.16
            38  3190.31  3091.61   197.79   197.00
            39  3388.80  3289.39   199.14   198.50
            40  3588.51  3488.52   200.24   199.72
            41  3789.20  3688.74   201.12   200.70
            42  3990.70  3889.86   201.84   201.50
            43  4192.84  4091.70   202.42   202.15
            44  4395.50  4294.11   202.88   202.66
            45  4598.57  4496.99   203.26   203.08
            46  4801.99  4700.24   203.56   203.42
            47  5005.67  4903.80   203.80   203.68
            48  5209.57  5107.59   203.99   203.90
            49  5413.64  5311.58   204.15   204.07
            50  5617.85  5515.73   204.27   204.21
            51  5822.17  5720.00   204.37   204.32
 
     zgr_bat : defines level and meter bathymetry
     ~~~~~~~
                     iom_nf90_open ~~~ open existing file: bathy_meter.nc in READ mode
                    ---> bathy_meter.nc OK
           read Bathymetry (rec:      1) in bathy_meter.nc ok
                     iom_close ~~~ close file: bathy_meter.nc ok
 
 domzgr_sco : s-coordinate or hybrid z-s-coordinate
 ~~~~~~~~~~~
    Namelist namzgr_sco
      stretching coeffs 
         maximum depth of s-bottom surface (>0)       rn_sbot_max   =  10000.
         minimum depth of s-bottom surface (>0)       rn_sbot_min   =  1.00000000000000008E-5
         Critical depth                               rn_hc         =  60.
         maximum cut-off r-value allowed              rn_rmax       =  0.10000000000000001
      Song and Haidvogel 1994 stretching              ln_s_sh94     =  F
         Song and Haidvogel 1994 stretching coefficients
         surface control parameter (0<=rn_theta<=20)  rn_theta      =  6.
         bottom  control parameter (0<=rn_thetb<= 1)  rn_thetb      =  1.
         stretching parameter (song and haidvogel)    rn_bb         =  0.80000000000000004
      Siddorn and Furner 2012 stretching              ln_s_sf12     =  T
         switching to sigma (T) or Z (F) at H<Hc      ln_sigcrit    =  T
         Siddorn and Furner 2012 stretching coefficients
         stretchin parameter ( >1 surface; <1 bottom) rn_alpha      =  4.4000000000000004
         e-fold length scale for transition region    rn_efold      =  0.
         Surface cell depth (Zs) (m)                  rn_zs         =  1.
         Bathymetry multiplier for Zb                 rn_zb_a       =  2.40000000000000005E-2
         Offset for Zb                                rn_zb_b       =  -0.20000000000000001
         Bottom cell (Zb) (m) = H*rn_zb_a + rn_zb_b
 zgr_sco :   iter=  1  rmax=  1.
 zgr_sco :   iter=  2  rmax=  0.99999998389962119
 zgr_sco :   iter=  3  rmax=  0.99999997885656666
 zgr_sco :   iter=  4  rmax=  0.94546934047366649
 zgr_sco :   iter=  5  rmax=  0.82325938087845163
 zgr_sco :   iter=  6  rmax=  0.76526177744838475
 zgr_sco :   iter=  7  rmax=  0.67034671712675709
 zgr_sco :   iter=  8  rmax=  0.54462094769412772
 zgr_sco :   iter=  9  rmax=  0.54462094769412783
 zgr_sco :   iter=  10  rmax=  0.4581183561556777
 zgr_sco :   iter=  11  rmax=  0.39822714488471261
 zgr_sco :   iter=  12  rmax=  0.22682382727085895
 zgr_sco :   iter=  13  rmax=  0.15478792847325487
 zgr_sco :   iter=  14  rmax=  0.14468894504024654
 zgr_sco :   iter=  15  rmax=  0.1000000000000001
 
  domzgr: hbatt field; ocean depth in meters
 


           1           2           3           4           5           6           7           8           9          10

 152  4.2544E+03  4.2544E+03  4.2544E+03  4.2544E+03  4.2544E+03  4.2511E+03  4.2684E+03  4.1125E+03  4.0850E+03  4.0577E+03
 151  4.2554E+03  4.2554E+03  4.2554E+03  4.2554E+03  4.2554E+03  4.2453E+03  4.2242E+03  4.0379E+03  4.0413E+03  3.9601E+03
 150  4.2206E+03  4.2206E+03  4.2206E+03  4.2206E+03  4.2206E+03  4.1961E+03  4.1550E+03  4.0057E+03  4.0048E+03  3.9581E+03
 149  4.1567E+03  4.1567E+03  4.1567E+03  4.1567E+03  4.1567E+03  4.0618E+03  4.0329E+03  4.0437E+03  4.0338E+03  3.9765E+03
 148  4.1173E+03  4.1173E+03  4.1173E+03  4.1173E+03  4.1173E+03  3.9801E+03  4.2225E+03  4.1164E+03  4.0013E+03  4.0050E+03
 147  4.1220E+03  4.1220E+03  4.1220E+03  4.1220E+03  4.1220E+03  4.0188E+03  4.1250E+03  4.0186E+03  3.9733E+03  4.0298E+03
 146  4.1690E+03  4.1690E+03  4.1690E+03  4.1690E+03  4.1690E+03  4.0291E+03  3.9906E+03  3.9650E+03  3.9788E+03  4.0361E+03
 145  4.1085E+03  4.1085E+03  4.1085E+03  4.1085E+03  4.1085E+03  4.0369E+03  4.0011E+03  3.9729E+03  3.9989E+03  4.0489E+03
 144  4.0681E+03  4.0681E+03  4.0681E+03  4.0681E+03  4.0681E+03  4.0369E+03  4.0174E+03  4.0146E+03  4.0138E+03  4.0841E+03
 143  4.0896E+03  4.0896E+03  4.0896E+03  4.0896E+03  4.0896E+03  4.0899E+03  4.1273E+03  4.0959E+03  4.0707E+03  4.0875E+03
 142  4.0949E+03  4.0949E+03  4.0949E+03  4.0949E+03  4.0949E+03  4.1063E+03  4.1320E+03  4.1192E+03  4.0994E+03  4.0957E+03
 141  4.0829E+03  4.0829E+03  4.0829E+03  4.0829E+03  4.0829E+03  4.0914E+03  4.1035E+03  4.1041E+03  4.1022E+03  4.1039E+03
 140  4.0634E+03  4.0634E+03  4.0634E+03  4.0634E+03  4.0634E+03  4.0689E+03  4.0775E+03  4.0848E+03  4.0973E+03  4.1020E+03
 139  4.0441E+03  4.0441E+03  4.0441E+03  4.0441E+03  4.0441E+03  4.0477E+03  4.0546E+03  4.0645E+03  4.1001E+03  4.1166E+03
 138  4.0292E+03  4.0292E+03  4.0292E+03  4.0292E+03  4.0292E+03  4.0349E+03  4.0364E+03  4.0540E+03  4.1145E+03  4.1368E+03
 137  4.0257E+03  4.0257E+03  4.0257E+03  4.0257E+03  4.0257E+03  4.0321E+03  4.0196E+03  4.0314E+03  4.0915E+03  4.1152E+03
 136  4.0280E+03  4.0280E+03  4.0280E+03  4.0280E+03  4.0280E+03  4.0243E+03  4.0091E+03  4.0478E+03  4.1152E+03  4.1494E+03
 135  4.0341E+03  4.0341E+03  4.0341E+03  4.0341E+03  4.0341E+03  4.0200E+03  4.0325E+03  4.0984E+03  4.1757E+03  4.2117E+03
 134  4.0719E+03  4.0719E+03  4.0719E+03  4.0719E+03  4.0719E+03  4.0519E+03  4.1020E+03  4.1723E+03  4.2338E+03  4.2442E+03
 133  4.1740E+03  4.1740E+03  4.1740E+03  4.1740E+03  4.1740E+03  4.1869E+03  4.2281E+03  4.2527E+03  4.2550E+03  4.2523E+03
 132  4.2851E+03  4.2851E+03  4.2851E+03  4.2851E+03  4.2851E+03  4.3251E+03  4.3697E+03  4.3422E+03  4.2569E+03  4.2216E+03
 131  4.3407E+03  4.3407E+03  4.3407E+03  4.3407E+03  4.3407E+03  4.4042E+03  4.4346E+03  4.3661E+03  4.2570E+03  4.1768E+03
 130  4.3589E+03  4.3589E+03  4.3589E+03  4.3589E+03  4.3589E+03  4.4369E+03  4.4005E+03  4.2996E+03  4.1908E+03  4.1315E+03
 129  4.3190E+03  4.3190E+03  4.3190E+03  4.3190E+03  4.3190E+03  4.4044E+03  4.3503E+03  4.2748E+03  4.1705E+03  4.0884E+03
 128  4.1930E+03  4.1930E+03  4.1930E+03  4.1930E+03  4.1930E+03  4.2065E+03  4.2447E+03  4.3283E+03  4.2425E+03  4.0939E+03
 127  4.1021E+03  4.1021E+03  4.1021E+03  4.1021E+03  4.1021E+03  4.0807E+03  4.2036E+03  4.4055E+03  4.3143E+03  4.1714E+03
 126  4.1436E+03  4.1436E+03  4.1436E+03  4.1436E+03  4.1436E+03  4.2001E+03  4.3287E+03  4.4283E+03  4.3406E+03  4.2462E+03
 125  4.2213E+03  4.2213E+03  4.2213E+03  4.2213E+03  4.2213E+03  4.3960E+03  4.4356E+03  4.4316E+03  4.3042E+03  4.2772E+03
 124  4.3802E+03  4.3802E+03  4.3802E+03  4.3802E+03  4.3802E+03  4.4826E+03  4.4683E+03  4.3905E+03  4.2317E+03  4.3104E+03
 123  4.4676E+03  4.4676E+03  4.4676E+03  4.4676E+03  4.4676E+03  4.4916E+03  4.4689E+03  4.3847E+03  4.2997E+03  4.3545E+03
 122  4.4904E+03  4.4904E+03  4.4904E+03  4.4904E+03  4.4904E+03  4.4932E+03  4.4747E+03  4.4174E+03  4.3774E+03  4.3911E+03
 121  4.4781E+03  4.4781E+03  4.4781E+03  4.4781E+03  4.4781E+03  4.4805E+03  4.4741E+03  4.4318E+03  4.4138E+03  4.4170E+03
 120  4.4296E+03  4.4296E+03  4.4296E+03  4.4296E+03  4.4296E+03  4.4174E+03  4.4258E+03  4.4183E+03  4.4230E+03  4.4332E+03
 119  4.2947E+03  4.2947E+03  4.2947E+03  4.2947E+03  4.2947E+03  4.3112E+03  4.3607E+03  4.3960E+03  4.4279E+03  4.4489E+03
 118  4.2586E+03  4.2586E+03  4.2586E+03  4.2586E+03  4.2586E+03  4.2954E+03  4.3687E+03  4.4331E+03  4.4623E+03  4.4718E+03
 117  4.3279E+03  4.3279E+03  4.3279E+03  4.3279E+03  4.3279E+03  4.4107E+03  4.4346E+03  4.4687E+03  4.4857E+03  4.4969E+03
 116  4.4043E+03  4.4043E+03  4.4043E+03  4.4043E+03  4.4043E+03  4.4518E+03  4.4626E+03  4.4664E+03  4.4889E+03  4.5117E+03
 115  4.4554E+03  4.4554E+03  4.4554E+03  4.4554E+03  4.4554E+03  4.4622E+03  4.4747E+03  4.4664E+03  4.4852E+03  4.4947E+03
 114  4.4692E+03  4.4692E+03  4.4692E+03  4.4692E+03  4.4692E+03  4.4667E+03  4.4671E+03  4.4744E+03  4.4782E+03  4.4844E+03
 113  4.4613E+03  4.4613E+03  4.4613E+03  4.4613E+03  4.4613E+03  4.4651E+03  4.4670E+03  4.4731E+03  4.4712E+03  4.4733E+03
 112  4.4445E+03  4.4445E+03  4.4445E+03  4.4445E+03  4.4445E+03  4.4553E+03  4.4549E+03  4.4598E+03  4.4472E+03  4.4471E+03
 111  4.4311E+03  4.4311E+03  4.4311E+03  4.4311E+03  4.4311E+03  4.4448E+03  4.4490E+03  4.4503E+03  4.4211E+03  4.4357E+03
 110  4.4229E+03  4.4229E+03  4.4229E+03  4.4229E+03  4.4229E+03  4.4233E+03  4.4453E+03  4.4304E+03  4.4188E+03  4.4352E+03
 109  4.3626E+03  4.3626E+03  4.3626E+03  4.3626E+03  4.3626E+03  4.3863E+03  4.4004E+03  4.4060E+03  4.4025E+03  4.4119E+03
 108  4.3245E+03  4.3245E+03  4.3245E+03  4.3245E+03  4.3245E+03  4.1196E+03  4.3352E+03  4.3858E+03  4.3863E+03  4.4006E+03
 107  4.0618E+03  4.0618E+03  4.0618E+03  4.0618E+03  4.0618E+03  4.2269E+03  4.3593E+03  4.3513E+03  4.3573E+03  4.3777E+03
 106  4.1448E+03  4.1448E+03  4.1448E+03  4.1448E+03  4.1448E+03  4.3034E+03  4.3052E+03  4.3126E+03  4.3240E+03  4.3045E+03
 105  4.0427E+03  4.0427E+03  4.0427E+03  4.0427E+03  4.0427E+03  4.0938E+03  4.1379E+03  4.1372E+03  4.1456E+03  4.1764E+03
 104  4.0331E+03  4.0331E+03  4.0331E+03  4.0331E+03  4.0331E+03  4.0586E+03  4.0988E+03  4.0442E+03  4.1042E+03  4.1768E+03
 103  4.0137E+03  4.0137E+03  4.0137E+03  4.0137E+03  4.0137E+03  3.9973E+03  4.0267E+03  4.0880E+03  4.1661E+03  4.2163E+03
 102  3.9186E+03  3.9186E+03  3.9186E+03  3.9186E+03  3.9186E+03  4.0100E+03  4.0994E+03  4.1286E+03  4.1805E+03  4.2110E+03
 101  3.8972E+03  3.8972E+03  3.8972E+03  3.8972E+03  3.8972E+03  4.0516E+03  4.1275E+03  4.1582E+03  4.1863E+03  4.1892E+03
 100  3.9851E+03  3.9851E+03  3.9851E+03  3.9851E+03  3.9851E+03  4.0752E+03  4.1363E+03  4.1658E+03  4.1779E+03  4.1379E+03
  99  4.0422E+03  4.0422E+03  4.0422E+03  4.0422E+03  4.0422E+03  4.0923E+03  4.1246E+03  4.1484E+03  4.1619E+03  4.1460E+03
  98  4.1277E+03  4.1277E+03  4.1277E+03  4.1277E+03  4.1277E+03  4.1301E+03  4.1342E+03  4.1491E+03  4.1622E+03  4.1757E+03
  97  4.1644E+03  4.1644E+03  4.1644E+03  4.1644E+03  4.1644E+03  4.1588E+03  4.1535E+03  4.1586E+03  4.1711E+03  4.1974E+03
  96  4.1781E+03  4.1781E+03  4.1781E+03  4.1781E+03  4.1781E+03  4.1679E+03  4.1571E+03  4.1562E+03  4.1681E+03  4.2030E+03
  95  4.1883E+03  4.1883E+03  4.1883E+03  4.1883E+03  4.1883E+03  4.1657E+03  4.1476E+03  4.1367E+03  4.1434E+03  4.1922E+03
  94  4.2009E+03  4.2009E+03  4.2009E+03  4.2009E+03  4.2009E+03  4.1597E+03  4.1331E+03  4.1103E+03  4.0918E+03  4.1673E+03
  93  4.2200E+03  4.2200E+03  4.2200E+03  4.2200E+03  4.2200E+03  4.1564E+03  4.1199E+03  4.1031E+03  4.0660E+03  4.1504E+03
  92  4.2464E+03  4.2464E+03  4.2464E+03  4.2464E+03  4.2464E+03  4.1821E+03  4.1457E+03  4.1192E+03  4.1016E+03  4.1629E+03
  91  4.2689E+03  4.2689E+03  4.2689E+03  4.2689E+03  4.2689E+03  4.2200E+03  4.1849E+03  4.1647E+03  4.1620E+03  4.2015E+03
  90  4.3066E+03  4.3066E+03  4.3066E+03  4.3066E+03  4.3066E+03  4.2681E+03  4.2385E+03  4.2246E+03  4.2269E+03  4.2514E+03
  89  4.3600E+03  4.3600E+03  4.3600E+03  4.3600E+03  4.3600E+03  4.3263E+03  4.3009E+03  4.2898E+03  4.2930E+03  4.3083E+03
  88  4.4271E+03  4.4271E+03  4.4271E+03  4.4271E+03  4.4271E+03  4.3889E+03  4.3648E+03  4.3557E+03  4.3555E+03  4.3614E+03
  87  4.4922E+03  4.4922E+03  4.4922E+03  4.4922E+03  4.4922E+03  4.4417E+03  4.4187E+03  4.4137E+03  4.4142E+03  4.4101E+03
  86  4.5175E+03  4.5175E+03  4.5175E+03  4.5175E+03  4.5175E+03  4.4629E+03  4.4543E+03  4.4579E+03  4.4615E+03  4.4502E+03
  85  4.4730E+03  4.4730E+03  4.4730E+03  4.4730E+03  4.4730E+03  4.4557E+03  4.4735E+03  4.4856E+03  4.4886E+03  4.4687E+03
  84  4.4817E+03  4.4817E+03  4.4817E+03  4.4817E+03  4.4817E+03  4.4809E+03  4.5006E+03  4.5094E+03  4.5035E+03  4.4772E+03
  83  4.5246E+03  4.5246E+03  4.5246E+03  4.5246E+03  4.5246E+03  4.5235E+03  4.5394E+03  4.5312E+03  4.5188E+03  4.4951E+03
  82  4.5516E+03  4.5516E+03  4.5516E+03  4.5516E+03  4.5516E+03  4.5511E+03  4.5698E+03  4.5539E+03  4.5344E+03  4.5185E+03
  81  4.5605E+03  4.5605E+03  4.5605E+03  4.5605E+03  4.5605E+03  4.5586E+03  4.5753E+03  4.5661E+03  4.5351E+03  4.5115E+03
  80  4.5742E+03  4.5742E+03  4.5742E+03  4.5742E+03  4.5742E+03  4.5925E+03  4.5911E+03  4.5481E+03  4.5265E+03  4.4751E+03
  79  4.6153E+03  4.6153E+03  4.6153E+03  4.6153E+03  4.6153E+03  4.5874E+03  4.5255E+03  4.5376E+03  4.5208E+03  4.4608E+03
  78  4.6356E+03  4.6356E+03  4.6356E+03  4.6356E+03  4.6356E+03  4.5338E+03  4.5176E+03  4.5642E+03  4.5363E+03  4.4954E+03
  77  4.6609E+03  4.6609E+03  4.6609E+03  4.6609E+03  4.6609E+03  4.5489E+03  4.5300E+03  4.5708E+03  4.5279E+03  4.4956E+03
  76  4.6181E+03  4.6181E+03  4.6181E+03  4.6181E+03  4.6181E+03  4.5453E+03  4.4983E+03  4.4778E+03  4.4464E+03  4.4389E+03
  75  4.6045E+03  4.6045E+03  4.6045E+03  4.6045E+03  4.6045E+03  4.5354E+03  4.4783E+03  4.4188E+03  4.3826E+03  4.3823E+03
  74  4.6019E+03  4.6019E+03  4.6019E+03  4.6019E+03  4.6019E+03  4.5384E+03  4.4613E+03  4.4131E+03  4.3851E+03  4.3687E+03
  73  4.5672E+03  4.5672E+03  4.5672E+03  4.5672E+03  4.5672E+03  4.5484E+03  4.4487E+03  4.4047E+03  4.3739E+03  4.3787E+03
  72  4.5440E+03  4.5440E+03  4.5440E+03  4.5440E+03  4.5440E+03  4.5216E+03  4.4262E+03  4.4017E+03  4.3858E+03  4.4162E+03
  71  4.5071E+03  4.5071E+03  4.5071E+03  4.5071E+03  4.5071E+03  4.4957E+03  4.4890E+03  4.4944E+03  4.4802E+03  4.4428E+03
  70  4.5734E+03  4.5734E+03  4.5734E+03  4.5734E+03  4.5734E+03  4.6069E+03  4.6098E+03  4.6008E+03  4.5634E+03  4.5165E+03
  69  4.6045E+03  4.6045E+03  4.6045E+03  4.6045E+03  4.6045E+03  4.6347E+03  4.6384E+03  4.6239E+03  4.5984E+03  4.5763E+03
  68  4.6077E+03  4.6077E+03  4.6077E+03  4.6077E+03  4.6077E+03  4.6178E+03  4.6276E+03  4.6246E+03  4.6200E+03  4.6284E+03
  67  4.6149E+03  4.6149E+03  4.6149E+03  4.6149E+03  4.6149E+03  4.6223E+03  4.6303E+03  4.6272E+03  4.6367E+03  4.6716E+03
  66  4.6665E+03  4.6665E+03  4.6665E+03  4.6665E+03  4.6665E+03  4.6941E+03  4.6623E+03  4.6457E+03  4.6607E+03  4.7167E+03
  65  4.6706E+03  4.6706E+03  4.6706E+03  4.6706E+03  4.6706E+03  4.7072E+03  4.7007E+03  4.6997E+03  4.7228E+03  4.7602E+03
  64  4.7116E+03  4.7116E+03  4.7116E+03  4.7116E+03  4.7116E+03  4.7323E+03  4.7449E+03  4.7575E+03  4.7775E+03  4.8019E+03
  63  4.7616E+03  4.7616E+03  4.7616E+03  4.7616E+03  4.7616E+03  4.7750E+03  4.7887E+03  4.8025E+03  4.8158E+03  4.8305E+03
  62  4.8028E+03  4.8028E+03  4.8028E+03  4.8028E+03  4.8028E+03  4.8131E+03  4.8218E+03  4.8290E+03  4.8346E+03  4.8366E+03
  61  4.8421E+03  4.8421E+03  4.8421E+03  4.8421E+03  4.8421E+03  4.8424E+03  4.8415E+03  4.8399E+03  4.8359E+03  4.8256E+03
  60  4.8752E+03  4.8752E+03  4.8752E+03  4.8752E+03  4.8752E+03  4.8584E+03  4.8455E+03  4.8326E+03  4.8234E+03  4.8058E+03
  59  4.9011E+03  4.9011E+03  4.9011E+03  4.9011E+03  4.9011E+03  4.8597E+03  4.8323E+03  4.8110E+03  4.8005E+03  4.7890E+03
  58  4.9158E+03  4.9158E+03  4.9158E+03  4.9158E+03  4.9158E+03  4.8431E+03  4.8031E+03  4.7743E+03  4.7717E+03  4.7804E+03
  57  4.8860E+03  4.8860E+03  4.8860E+03  4.8860E+03  4.8860E+03  4.8153E+03  4.7578E+03  4.7271E+03  4.7419E+03  4.7624E+03
  56  4.8097E+03  4.8097E+03  4.8097E+03  4.8097E+03  4.8097E+03  4.7446E+03  4.7178E+03  4.7231E+03  4.7460E+03  4.7516E+03
  55  4.8084E+03  4.8084E+03  4.8084E+03  4.8084E+03  4.8084E+03  4.7548E+03  4.7743E+03  4.7981E+03  4.7916E+03  4.7737E+03
  54  4.8386E+03  4.8386E+03  4.8386E+03  4.8386E+03  4.8386E+03  4.7888E+03  4.8607E+03  4.8861E+03  4.8511E+03  4.8187E+03
  53  4.8657E+03  4.8657E+03  4.8657E+03  4.8657E+03  4.8657E+03  4.8091E+03  4.8791E+03  4.9209E+03  4.8989E+03  4.8667E+03
  52  4.9246E+03  4.9246E+03  4.9246E+03  4.9246E+03  4.9246E+03  4.8732E+03  4.9311E+03  4.9420E+03  4.9316E+03  4.9073E+03
  51  4.9590E+03  4.9590E+03  4.9590E+03  4.9590E+03  4.9590E+03  4.9638E+03  4.9890E+03  4.9447E+03  4.9424E+03  4.9366E+03
  50  4.9546E+03  4.9546E+03  4.9546E+03  4.9546E+03  4.9546E+03  4.9555E+03  4.9188E+03  4.8996E+03  4.8956E+03  4.9865E+03
  49  4.9681E+03  4.9681E+03  4.9681E+03  4.9681E+03  4.9681E+03  4.9394E+03  4.8753E+03  4.8981E+03  4.9584E+03  5.0047E+03
  48  4.9542E+03  4.9542E+03  4.9542E+03  4.9542E+03  4.9542E+03  4.9380E+03  4.9208E+03  4.9565E+03  5.0063E+03  5.0155E+03
  47  4.9313E+03  4.9313E+03  4.9313E+03  4.9313E+03  4.9313E+03  4.9151E+03  4.9553E+03  4.9913E+03  5.0175E+03  5.0166E+03
  46  4.9600E+03  4.9600E+03  4.9600E+03  4.9600E+03  4.9600E+03  4.9713E+03  4.9883E+03  4.9990E+03  4.9918E+03  5.0081E+03
  45  5.0127E+03  5.0127E+03  5.0127E+03  5.0127E+03  5.0127E+03  5.0221E+03  5.0181E+03  5.0148E+03  4.9949E+03  4.9875E+03
  44  5.0247E+03  5.0247E+03  5.0247E+03  5.0247E+03  5.0247E+03  5.0243E+03  5.0247E+03  5.0155E+03  4.8657E+03  4.9099E+03
  43  4.9753E+03  4.9753E+03  4.9753E+03  4.9753E+03  4.9753E+03  5.0093E+03  5.0170E+03  4.8923E+03  4.7746E+03  4.7623E+03
  42  5.0094E+03  5.0094E+03  5.0094E+03  5.0094E+03  5.0094E+03  4.9709E+03  4.9486E+03  4.8203E+03  4.7778E+03  4.7569E+03
  41  4.9683E+03  4.9683E+03  4.9683E+03  4.9683E+03  4.9683E+03  4.8045E+03  4.8487E+03  4.8063E+03  4.7924E+03  4.7994E+03
  40  4.8621E+03  4.8621E+03  4.8621E+03  4.8621E+03  4.8621E+03  4.7772E+03  4.8131E+03  4.8357E+03  4.8595E+03  4.8416E+03
  39  4.7787E+03  4.7787E+03  4.7787E+03  4.7787E+03  4.7787E+03  4.8338E+03  4.8497E+03  4.8903E+03  4.8730E+03  4.8486E+03
  38  4.8224E+03  4.8224E+03  4.8224E+03  4.8224E+03  4.8224E+03  4.8669E+03  4.8945E+03  4.8960E+03  4.8753E+03  4.8492E+03
  37  4.8370E+03  4.8370E+03  4.8370E+03  4.8370E+03  4.8370E+03  4.8745E+03  4.9033E+03  4.9027E+03  4.8870E+03  4.8737E+03
  36  4.8409E+03  4.8409E+03  4.8409E+03  4.8409E+03  4.8409E+03  4.8862E+03  4.8968E+03  4.9006E+03  4.9243E+03  4.8996E+03
  35  4.8709E+03  4.8709E+03  4.8709E+03  4.8709E+03  4.8709E+03  4.8696E+03  4.9012E+03  4.9405E+03  4.9714E+03  4.9235E+03
  34  4.8810E+03  4.8810E+03  4.8810E+03  4.8810E+03  4.8810E+03  4.9034E+03  4.9447E+03  4.9842E+03  4.9898E+03  4.9250E+03
  33  4.9049E+03  4.9049E+03  4.9049E+03  4.9049E+03  4.9049E+03  4.9520E+03  4.9784E+03  4.9977E+03  4.9648E+03  4.8719E+03
  32  4.8498E+03  4.8498E+03  4.8498E+03  4.8498E+03  4.8498E+03  4.8885E+03  4.9089E+03  4.9160E+03  4.8347E+03  4.7350E+03
  31  4.7131E+03  4.7131E+03  4.7131E+03  4.7131E+03  4.7131E+03  4.7323E+03  4.7444E+03  4.7259E+03  4.6482E+03  4.5555E+03
  30  4.5399E+03  4.5399E+03  4.5399E+03  4.5399E+03  4.5399E+03  4.5539E+03  4.5637E+03  4.5510E+03  4.5038E+03  4.4621E+03
  29  4.3676E+03  4.3676E+03  4.3676E+03  4.3676E+03  4.3676E+03  4.3910E+03  4.4118E+03  4.4225E+03  4.4062E+03  4.3763E+03
  28  4.2151E+03  4.2151E+03  4.2151E+03  4.2151E+03  4.2151E+03  4.2563E+03  4.3021E+03  4.3523E+03  4.3998E+03  4.4510E+03
  27  4.0997E+03  4.0997E+03  4.0997E+03  4.0997E+03  4.0997E+03  4.1576E+03  4.2343E+03  4.3275E+03  4.4212E+03  4.5278E+03
  26  4.0337E+03  4.0337E+03  4.0337E+03  4.0337E+03  4.0337E+03  4.0954E+03  4.2069E+03  4.3347E+03  4.4501E+03  4.5526E+03
  25  4.0143E+03  4.0143E+03  4.0143E+03  4.0143E+03  4.0143E+03  4.0615E+03  4.2173E+03  4.3780E+03  4.4901E+03  4.5651E+03
  24  4.0204E+03  4.0204E+03  4.0204E+03  4.0204E+03  4.0204E+03  4.0612E+03  4.2851E+03  4.4661E+03  4.5408E+03  4.5875E+03
  23  4.1025E+03  4.1025E+03  4.1025E+03  4.1025E+03  4.1025E+03  4.1792E+03  4.4077E+03  4.5494E+03  4.5630E+03  4.5756E+03
  22  4.2509E+03  4.2509E+03  4.2509E+03  4.2509E+03  4.2509E+03  4.3230E+03  4.4570E+03  4.5471E+03  4.5498E+03  4.5530E+03
  21  4.3695E+03  4.3695E+03  4.3695E+03  4.3695E+03  4.3695E+03  4.4193E+03  4.4943E+03  4.5453E+03  4.5591E+03  4.5677E+03
  20  4.4523E+03  4.4523E+03  4.4523E+03  4.4523E+03  4.4523E+03  4.4804E+03  4.5184E+03  4.5504E+03  4.5719E+03  4.5842E+03
  19  4.5017E+03  4.5017E+03  4.5017E+03  4.5017E+03  4.5017E+03  4.5126E+03  4.5251E+03  4.5443E+03  4.5683E+03  4.5807E+03
  18  4.5273E+03  4.5273E+03  4.5273E+03  4.5273E+03  4.5273E+03  4.5247E+03  4.5183E+03  4.5183E+03  4.5351E+03  4.5145E+03
  17  4.5436E+03  4.5436E+03  4.5436E+03  4.5436E+03  4.5436E+03  4.5308E+03  4.5172E+03  4.5061E+03  4.4955E+03  4.4520E+03
  16  4.5430E+03  4.5430E+03  4.5430E+03  4.5430E+03  4.5430E+03  4.5351E+03  4.5257E+03  4.5109E+03  4.4940E+03  4.4730E+03
  15  4.5375E+03  4.5375E+03  4.5375E+03  4.5375E+03  4.5375E+03  4.5451E+03  4.5410E+03  4.5254E+03  4.5084E+03  4.4969E+03
  14  4.5397E+03  4.5397E+03  4.5397E+03  4.5397E+03  4.5397E+03  4.5678E+03  4.5579E+03  4.5425E+03  4.5244E+03  4.5171E+03
  13  4.5742E+03  4.5742E+03  4.5742E+03  4.5742E+03  4.5742E+03  4.5507E+03  4.5451E+03  4.5320E+03  4.5212E+03  4.5240E+03
  12  4.5465E+03  4.5465E+03  4.5465E+03  4.5465E+03  4.5465E+03  4.5254E+03  4.5143E+03  4.4926E+03  4.4937E+03  4.5135E+03
  11  4.5043E+03  4.5043E+03  4.5043E+03  4.5043E+03  4.5043E+03  4.4787E+03  4.4617E+03  4.4284E+03  4.4564E+03  4.4953E+03
  10  4.4489E+03  4.4489E+03  4.4489E+03  4.4489E+03  4.4489E+03  4.4027E+03  4.3747E+03  4.3160E+03  4.4315E+03  4.4847E+03
   9  4.3885E+03  4.3885E+03  4.3885E+03  4.3885E+03  4.3885E+03  4.3065E+03  4.2262E+03  4.2131E+03  4.4157E+03  4.4701E+03
   8  4.3382E+03  4.3382E+03  4.3382E+03  4.3382E+03  4.3382E+03  4.2745E+03  4.2764E+03  4.3789E+03  4.4531E+03  4.4614E+03
   7  4.2752E+03  4.2752E+03  4.2752E+03  4.2752E+03  4.2752E+03  4.2570E+03  4.2742E+03  4.4146E+03  4.4365E+03  4.4569E+03
   6  4.2458E+03  4.2458E+03  4.2458E+03  4.2458E+03  4.2458E+03  4.1860E+03  4.1653E+03  4.3518E+03  4.3887E+03  4.4445E+03
   5  4.1346E+03  4.1346E+03  4.1346E+03  4.1346E+03  4.1346E+03  4.0243E+03  4.0838E+03  4.2069E+03  4.2993E+03  4.3059E+03
   4  4.1346E+03  4.1346E+03  4.1346E+03  4.1346E+03  4.1346E+03  4.0243E+03  4.0838E+03  4.2069E+03  4.2993E+03  4.3059E+03
   3  4.1346E+03  4.1346E+03  4.1346E+03  4.1346E+03  4.1346E+03  4.0243E+03  4.0838E+03  4.2069E+03  4.2993E+03  4.3059E+03
   2  4.1346E+03  4.1346E+03  4.1346E+03  4.1346E+03  4.1346E+03  4.0243E+03  4.0838E+03  4.2069E+03  4.2993E+03  4.3059E+03
   1  3.3828E+03  4.1346E+03  4.1346E+03  4.1346E+03  4.1346E+03  4.0243E+03  4.0838E+03  4.2069E+03  4.2993E+03  4.3059E+03


          11          12          13          14          15          16          17          18          19          20

 152  3.9160E+03  4.1459E+03  4.1767E+03  4.0662E+03  4.0245E+03  4.0393E+03  4.0521E+03  4.0641E+03  4.0671E+03  4.0732E+03
 151  3.9639E+03  3.9921E+03  4.0646E+03  3.9877E+03  4.0140E+03  4.0504E+03  4.0656E+03  4.0714E+03  4.0688E+03  4.0526E+03
 150  4.0562E+03  4.0050E+03  3.9818E+03  3.9526E+03  4.0123E+03  4.0518E+03  4.0717E+03  4.0740E+03  4.0637E+03  4.0451E+03
 149  4.0181E+03  4.0114E+03  4.0011E+03  4.0024E+03  4.0370E+03  4.0660E+03  4.0794E+03  4.0755E+03  4.0571E+03  4.0360E+03
 148  4.0350E+03  4.0378E+03  4.0213E+03  4.0369E+03  4.0665E+03  4.0883E+03  4.0926E+03  4.0817E+03  4.0528E+03  4.0328E+03
 147  4.0690E+03  4.0442E+03  4.0532E+03  4.0748E+03  4.0985E+03  4.1106E+03  4.1016E+03  4.0917E+03  4.0667E+03  4.0421E+03
 146  4.0708E+03  4.0674E+03  4.0772E+03  4.1056E+03  4.1185E+03  4.1191E+03  4.1096E+03  4.0965E+03  4.0766E+03  4.0515E+03
 145  4.0758E+03  4.0833E+03  4.0579E+03  4.0983E+03  4.1227E+03  4.1240E+03  4.1130E+03  4.0968E+03  4.0807E+03  4.0585E+03
 144  4.0856E+03  4.1023E+03  4.0926E+03  4.1252E+03  4.1288E+03  4.1261E+03  4.1074E+03  4.0894E+03  4.0803E+03  4.0661E+03
 143  4.0856E+03  4.0935E+03  4.1191E+03  4.1397E+03  4.1312E+03  4.1045E+03  4.0785E+03  4.0660E+03  4.0752E+03  4.0765E+03
[...]
            12    34.73    30.82     8.26     7.42
            13    43.89    39.07    10.16     9.17
            14    55.14    49.23    12.42    11.25
            15    68.83    61.66    15.07    13.69
            16    85.38    76.72    18.14    16.55
            17   105.22    94.86    21.67    19.84
            18   128.85   116.53    25.70    23.62
            19   156.76   142.23    30.26    27.91
            20   189.50   172.49    35.37    32.75
            21   227.65   207.87    41.07    38.15
            22   271.79   248.93    47.36    44.14
            23   322.52   296.29    54.25    50.73
            24   380.44   350.54    61.75    57.92
            25   446.17   412.29    69.85    65.73
            26   520.28   482.14    78.53    74.12
            27   603.36   560.67    87.76    83.08
            28   695.94   648.43    97.51    92.58
            29   798.50   745.94   107.71   102.56
            30   911.46   853.65   118.29   112.96
            31  1035.16   971.95   129.18   123.70
            32  1169.86  1101.12   140.25   134.70
            33  1315.69  1241.38   151.40   145.83
            34  1472.64  1392.78   162.47   156.95
            35  1640.57  1555.25   173.30   167.93
            36  1819.14  1728.55   183.71   178.57
            37  2007.82  1912.26   193.47   188.68
            38  2205.85  2105.72   202.35   198.03
            39  2412.23  2308.07   210.08   206.38
            40  2625.65  2518.15   216.37   213.43
            41  2844.53  2734.53   220.90   218.88
            42  3066.92  2955.42   223.30   222.39
            43  3290.50  3178.72   223.18   223.58
            44  3512.56  3401.91   220.13   222.05
            45  3729.91  3622.04   213.67   217.36
            46  3938.92  3835.71   203.31   209.01
            47  4135.42  4039.02   188.51   196.50
            48  4314.68  4227.53   168.68   179.26
            49  4471.38  4396.21   143.21   156.69
            50  4599.52  4539.42   111.42   128.15
            51  4692.46  4650.84    83.24    92.94
 
     zgr_bat_ctl : check the bathymetry
     ~~~~~~~~~~~
 
                    suppress isolated ocean grid points
                    -----------------------------------
      2848  ocean grid points suppressed
  mbathy set to 0 along east and west boundary: nperio =  0
 
     zgr_bot_level : ocean bottom k-index of T-, U-, V- and W-levels 
     ~~~~~~~~~~~~~
 
     zgr_top_level : ocean top k-index of T-, U-, V- and W-levels 
     ~~~~~~~~~~~~~
 
 dommsk : ocean mask 
 ~~~~~~
    Namelist namlbc
       lateral momentum boundary cond.    rn_shlat  =  0.
       consistency with analytical form   ln_vorlat =  F
    ocean lateral  free-slip 
 
 dom_stiff : maximum grid stiffness ratio:  9.9000000000000838
 ~~~~~~~~~
 
 dom_vvl_init : Variable volume activated
 ~~~~~~~~~~~~
 
 dom_vvl_ctl : choice/control of the variable vertical coordinate
 ~~~~~~~~~~~
            Namelist nam_vvl : chose a vertical coordinate
               zstar                      ln_vvl_zstar   =  T
               ztilde                     ln_vvl_ztilde  =  F
               layer                      ln_vvl_layer   =  F
               ztilde as zstar   ln_vvl_ztilde_as_zstar  =  F
       ztilde near the equator    ln_vvl_zstar_at_eqtor  =  F
            Namelist nam_vvl : thickness diffusion coefficient
                                          rn_ahe3        =  0.
            Namelist nam_vvl : maximum e3t deformation fractional change
                                          rn_zdef_max    =  0.90000000000000002
            Namelist nam_vvl : z-tilde to zstar restoration timescale (days)
                                          rn_rst_e3t     =  30.
            Namelist nam_vvl : z-tilde cutoff frequency of low-pass filter (days)
                                          rn_lf_cutoff   =  5.
            Namelist nam_vvl : debug prints
                                          ln_vvl_dbg     =  T
 
               zstar vertical coordinate is used
 
 dom_stp : time stepping setting
 ~~~~~~~
                synchronous time stepping
                dynamics and tracer time step =  1.66666666666666664E-2  hours
 
 dom_wri : create NetCDF mesh and mask information file(s)
 ~~~~~~~
                     iom_nf90_open ~~~ create new file: mesh_mask_0000.nc in WRITE mode
                    ---> mesh_mask_0000.nc OK
           iom_nf90_rp0123d, file: mesh_mask_0000.nc, var: tmask define dimension variables done
           iom_nf90_rp0123d, file: mesh_mask_0000.nc, var: tmask defined ok
           iom_nf90_rp0123d, file: mesh_mask_0000.nc, var: tmask write dimension variables done
           iom_nf90_rp0123d, file: mesh_mask_0000.nc, var: tmask written ok
           iom_nf90_rp0123d, file: mesh_mask_0000.nc, var: umask defined ok
           iom_nf90_rp0123d, file: mesh_mask_0000.nc, var: umask written ok
           iom_nf90_rp0123d, file: mesh_mask_0000.nc, var: vmask defined ok
           iom_nf90_rp0123d, file: mesh_mask_0000.nc, var: vmask written ok
           iom_nf90_rp0123d, file: mesh_mask_0000.nc, var: fmask defined ok
           iom_nf90_rp0123d, file: mesh_mask_0000.nc, var: fmask written ok
           iom_nf90_rp0123d, file: mesh_mask_0000.nc, var: tmaskutil defined ok
           iom_nf90_rp0123d, file: mesh_mask_0000.nc, var: tmaskutil written ok
           iom_nf90_rp0123d, file: mesh_mask_0000.nc, var: umaskutil defined ok
           iom_nf90_rp0123d, file: mesh_mask_0000.nc, var: umaskutil written ok
           iom_nf90_rp0123d, file: mesh_mask_0000.nc, var: vmaskutil defined ok
           iom_nf90_rp0123d, file: mesh_mask_0000.nc, var: vmaskutil written ok
           iom_nf90_rp0123d, file: mesh_mask_0000.nc, var: fmaskutil defined ok
           iom_nf90_rp0123d, file: mesh_mask_0000.nc, var: fmaskutil written ok
           iom_nf90_rp0123d, file: mesh_mask_0000.nc, var: glamt defined ok
           iom_nf90_rp0123d, file: mesh_mask_0000.nc, var: glamt written ok
           iom_nf90_rp0123d, file: mesh_mask_0000.nc, var: glamu defined ok
           iom_nf90_rp0123d, file: mesh_mask_0000.nc, var: glamu written ok
           iom_nf90_rp0123d, file: mesh_mask_0000.nc, var: glamv defined ok
           iom_nf90_rp0123d, file: mesh_mask_0000.nc, var: glamv written ok
           iom_nf90_rp0123d, file: mesh_mask_0000.nc, var: glamf defined ok
           iom_nf90_rp0123d, file: mesh_mask_0000.nc, var: glamf written ok
           iom_nf90_rp0123d, file: mesh_mask_0000.nc, var: gphit defined ok
           iom_nf90_rp0123d, file: mesh_mask_0000.nc, var: gphit written ok
           iom_nf90_rp0123d, file: mesh_mask_0000.nc, var: gphiu defined ok
           iom_nf90_rp0123d, file: mesh_mask_0000.nc, var: gphiu written ok
           iom_nf90_rp0123d, file: mesh_mask_0000.nc, var: gphiv defined ok
           iom_nf90_rp0123d, file: mesh_mask_0000.nc, var: gphiv written ok
           iom_nf90_rp0123d, file: mesh_mask_0000.nc, var: gphif defined ok
           iom_nf90_rp0123d, file: mesh_mask_0000.nc, var: gphif written ok
           iom_nf90_rp0123d, file: mesh_mask_0000.nc, var: e1t defined ok
           iom_nf90_rp0123d, file: mesh_mask_0000.nc, var: e1t written ok
           iom_nf90_rp0123d, file: mesh_mask_0000.nc, var: e1u defined ok
           iom_nf90_rp0123d, file: mesh_mask_0000.nc, var: e1u written ok
           iom_nf90_rp0123d, file: mesh_mask_0000.nc, var: e1v defined ok
           iom_nf90_rp0123d, file: mesh_mask_0000.nc, var: e1v written ok
           iom_nf90_rp0123d, file: mesh_mask_0000.nc, var: e1f defined ok
           iom_nf90_rp0123d, file: mesh_mask_0000.nc, var: e1f written ok
           iom_nf90_rp0123d, file: mesh_mask_0000.nc, var: e2t defined ok
           iom_nf90_rp0123d, file: mesh_mask_0000.nc, var: e2t written ok
           iom_nf90_rp0123d, file: mesh_mask_0000.nc, var: e2u defined ok
           iom_nf90_rp0123d, file: mesh_mask_0000.nc, var: e2u written ok
           iom_nf90_rp0123d, file: mesh_mask_0000.nc, var: e2v defined ok
           iom_nf90_rp0123d, file: mesh_mask_0000.nc, var: e2v written ok
           iom_nf90_rp0123d, file: mesh_mask_0000.nc, var: e2f defined ok
           iom_nf90_rp0123d, file: mesh_mask_0000.nc, var: e2f written ok
           iom_nf90_rp0123d, file: mesh_mask_0000.nc, var: ff defined ok
           iom_nf90_rp0123d, file: mesh_mask_0000.nc, var: ff written ok
           iom_nf90_rp0123d, file: mesh_mask_0000.nc, var: mbathy defined ok
           iom_nf90_rp0123d, file: mesh_mask_0000.nc, var: mbathy written ok
           iom_nf90_rp0123d, file: mesh_mask_0000.nc, var: misf defined ok
           iom_nf90_rp0123d, file: mesh_mask_0000.nc, var: misf written ok
           iom_nf90_rp0123d, file: mesh_mask_0000.nc, var: isfdraft defined ok
           iom_nf90_rp0123d, file: mesh_mask_0000.nc, var: isfdraft written ok
           iom_nf90_rp0123d, file: mesh_mask_0000.nc, var: hbatt defined ok
           iom_nf90_rp0123d, file: mesh_mask_0000.nc, var: hbatt written ok
           iom_nf90_rp0123d, file: mesh_mask_0000.nc, var: hbatu defined ok
           iom_nf90_rp0123d, file: mesh_mask_0000.nc, var: hbatu written ok
           iom_nf90_rp0123d, file: mesh_mask_0000.nc, var: hbatv defined ok
           iom_nf90_rp0123d, file: mesh_mask_0000.nc, var: hbatv written ok
           iom_nf90_rp0123d, file: mesh_mask_0000.nc, var: hbatf defined ok
           iom_nf90_rp0123d, file: mesh_mask_0000.nc, var: hbatf written ok
           iom_nf90_rp0123d, file: mesh_mask_0000.nc, var: gsigt defined ok
           iom_nf90_rp0123d, file: mesh_mask_0000.nc, var: gsigt written ok
           iom_nf90_rp0123d, file: mesh_mask_0000.nc, var: gsigw defined ok
           iom_nf90_rp0123d, file: mesh_mask_0000.nc, var: gsigw written ok
           iom_nf90_rp0123d, file: mesh_mask_0000.nc, var: gsi3w defined ok
           iom_nf90_rp0123d, file: mesh_mask_0000.nc, var: gsi3w written ok
           iom_nf90_rp0123d, file: mesh_mask_0000.nc, var: esigt defined ok
           iom_nf90_rp0123d, file: mesh_mask_0000.nc, var: esigt written ok
           iom_nf90_rp0123d, file: mesh_mask_0000.nc, var: esigw defined ok
           iom_nf90_rp0123d, file: mesh_mask_0000.nc, var: esigw written ok
           iom_nf90_rp0123d, file: mesh_mask_0000.nc, var: e3t_0 defined ok
           iom_nf90_rp0123d, file: mesh_mask_0000.nc, var: e3t_0 written ok
           iom_nf90_rp0123d, file: mesh_mask_0000.nc, var: e3u_0 defined ok
           iom_nf90_rp0123d, file: mesh_mask_0000.nc, var: e3u_0 written ok
           iom_nf90_rp0123d, file: mesh_mask_0000.nc, var: e3v_0 defined ok
           iom_nf90_rp0123d, file: mesh_mask_0000.nc, var: e3v_0 written ok
           iom_nf90_rp0123d, file: mesh_mask_0000.nc, var: e3w_0 defined ok
           iom_nf90_rp0123d, file: mesh_mask_0000.nc, var: e3w_0 written ok
           iom_nf90_rp0123d, file: mesh_mask_0000.nc, var: rx1 defined ok
           iom_nf90_rp0123d, file: mesh_mask_0000.nc, var: rx1 written ok
           iom_nf90_rp0123d, file: mesh_mask_0000.nc, var: gdept_1d defined ok
           iom_nf90_rp0123d, file: mesh_mask_0000.nc, var: gdept_1d written ok
           iom_nf90_rp0123d, file: mesh_mask_0000.nc, var: gdepw_1d defined ok
           iom_nf90_rp0123d, file: mesh_mask_0000.nc, var: gdepw_1d written ok
           iom_nf90_rp0123d, file: mesh_mask_0000.nc, var: gdept_0 defined ok
           iom_nf90_rp0123d, file: mesh_mask_0000.nc, var: gdept_0 written ok
           iom_nf90_rp0123d, file: mesh_mask_0000.nc, var: gdepu defined ok
           iom_nf90_rp0123d, file: mesh_mask_0000.nc, var: gdepu written ok
           iom_nf90_rp0123d, file: mesh_mask_0000.nc, var: gdepv defined ok
           iom_nf90_rp0123d, file: mesh_mask_0000.nc, var: gdepv written ok
           iom_nf90_rp0123d, file: mesh_mask_0000.nc, var: gdepf defined ok
           iom_nf90_rp0123d, file: mesh_mask_0000.nc, var: gdepf written ok
           iom_nf90_rp0123d, file: mesh_mask_0000.nc, var: gdepw_0 defined ok
           iom_nf90_rp0123d, file: mesh_mask_0000.nc, var: gdepw_0 written ok
                     iom_close ~~~ close file: mesh_mask_0000.nc ok
 
 dom_ctl : extrema of the masked scale factors
 ~~~~~~~
              e1t maxi:    1501.19 at i =     2 j=   540
              e1t mini:    1474.42 at i =     2 j=  1344
              e2t maxi:    1501.19 at i =     2 j=     2
              e2t mini:    1501.19 at i =     2 j=     2
 
 cfg_write : create the "domain_cfg.nc" file containing all required configuration information
 ~~~~~~~~~
                     iom_nf90_open ~~~ create new file: domain_cfg_0000.nc in WRITE mode
                    ---> domain_cfg_0000.nc OK
           iom_nf90_rp0123d, file: domain_cfg_0000.nc, var: jpiglo define dimension variables done
           iom_nf90_rp0123d, file: domain_cfg_0000.nc, var: jpiglo defined ok
           iom_nf90_rp0123d, file: domain_cfg_0000.nc, var: jpiglo written ok
           iom_nf90_rp0123d, file: domain_cfg_0000.nc, var: jpjglo defined ok
           iom_nf90_rp0123d, file: domain_cfg_0000.nc, var: jpjglo written ok
           iom_nf90_rp0123d, file: domain_cfg_0000.nc, var: jpkglo defined ok
           iom_nf90_rp0123d, file: domain_cfg_0000.nc, var: jpkglo written ok
           iom_nf90_rp0123d, file: domain_cfg_0000.nc, var: jperio defined ok
           iom_nf90_rp0123d, file: domain_cfg_0000.nc, var: jperio written ok
           iom_nf90_rp0123d, file: domain_cfg_0000.nc, var: ln_zco defined ok
           iom_nf90_rp0123d, file: domain_cfg_0000.nc, var: ln_zco written ok
           iom_nf90_rp0123d, file: domain_cfg_0000.nc, var: ln_zps defined ok
           iom_nf90_rp0123d, file: domain_cfg_0000.nc, var: ln_zps written ok
           iom_nf90_rp0123d, file: domain_cfg_0000.nc, var: ln_sco defined ok
           iom_nf90_rp0123d, file: domain_cfg_0000.nc, var: ln_sco written ok
           iom_nf90_rp0123d, file: domain_cfg_0000.nc, var: ln_isfcav defined ok
           iom_nf90_rp0123d, file: domain_cfg_0000.nc, var: ln_isfcav written ok
           iom_nf90_rp0123d, file: domain_cfg_0000.nc, var: hbatt defined ok
           iom_nf90_rp0123d, file: domain_cfg_0000.nc, var: hbatt write dimension variables done
           iom_nf90_rp0123d, file: domain_cfg_0000.nc, var: hbatt written ok
           iom_nf90_rp0123d, file: domain_cfg_0000.nc, var: rn_wd_ref_depth defined ok
           iom_nf90_rp0123d, file: domain_cfg_0000.nc, var: rn_wd_ref_depth written ok
           iom_nf90_rp0123d, file: domain_cfg_0000.nc, var: ht_wd defined ok
           iom_nf90_rp0123d, file: domain_cfg_0000.nc, var: ht_wd written ok
           iom_nf90_rp0123d, file: domain_cfg_0000.nc, var: glamt defined ok
           iom_nf90_rp0123d, file: domain_cfg_0000.nc, var: glamt written ok
           iom_nf90_rp0123d, file: domain_cfg_0000.nc, var: glamu defined ok
           iom_nf90_rp0123d, file: domain_cfg_0000.nc, var: glamu written ok
           iom_nf90_rp0123d, file: domain_cfg_0000.nc, var: glamv defined ok
           iom_nf90_rp0123d, file: domain_cfg_0000.nc, var: glamv written ok
           iom_nf90_rp0123d, file: domain_cfg_0000.nc, var: glamf defined ok
           iom_nf90_rp0123d, file: domain_cfg_0000.nc, var: glamf written ok
           iom_nf90_rp0123d, file: domain_cfg_0000.nc, var: gphit defined ok
           iom_nf90_rp0123d, file: domain_cfg_0000.nc, var: gphit written ok
           iom_nf90_rp0123d, file: domain_cfg_0000.nc, var: gphiu defined ok
           iom_nf90_rp0123d, file: domain_cfg_0000.nc, var: gphiu written ok
           iom_nf90_rp0123d, file: domain_cfg_0000.nc, var: gphiv defined ok
           iom_nf90_rp0123d, file: domain_cfg_0000.nc, var: gphiv written ok
           iom_nf90_rp0123d, file: domain_cfg_0000.nc, var: gphif defined ok
           iom_nf90_rp0123d, file: domain_cfg_0000.nc, var: gphif written ok
           iom_nf90_rp0123d, file: domain_cfg_0000.nc, var: e1t defined ok
           iom_nf90_rp0123d, file: domain_cfg_0000.nc, var: e1t written ok
           iom_nf90_rp0123d, file: domain_cfg_0000.nc, var: e1u defined ok
           iom_nf90_rp0123d, file: domain_cfg_0000.nc, var: e1u written ok
           iom_nf90_rp0123d, file: domain_cfg_0000.nc, var: e1v defined ok
           iom_nf90_rp0123d, file: domain_cfg_0000.nc, var: e1v written ok
           iom_nf90_rp0123d, file: domain_cfg_0000.nc, var: e1f defined ok
           iom_nf90_rp0123d, file: domain_cfg_0000.nc, var: e1f written ok
           iom_nf90_rp0123d, file: domain_cfg_0000.nc, var: e2t defined ok
           iom_nf90_rp0123d, file: domain_cfg_0000.nc, var: e2t written ok
           iom_nf90_rp0123d, file: domain_cfg_0000.nc, var: e2u defined ok
           iom_nf90_rp0123d, file: domain_cfg_0000.nc, var: e2u written ok
           iom_nf90_rp0123d, file: domain_cfg_0000.nc, var: e2v defined ok
           iom_nf90_rp0123d, file: domain_cfg_0000.nc, var: e2v written ok
           iom_nf90_rp0123d, file: domain_cfg_0000.nc, var: e2f defined ok
           iom_nf90_rp0123d, file: domain_cfg_0000.nc, var: e2f written ok
           iom_nf90_rp0123d, file: domain_cfg_0000.nc, var: ff_f defined ok
           iom_nf90_rp0123d, file: domain_cfg_0000.nc, var: ff_f written ok
           iom_nf90_rp0123d, file: domain_cfg_0000.nc, var: ff_t defined ok
           iom_nf90_rp0123d, file: domain_cfg_0000.nc, var: ff_t written ok
           iom_nf90_rp0123d, file: domain_cfg_0000.nc, var: e3t_1d defined ok
           iom_nf90_rp0123d, file: domain_cfg_0000.nc, var: e3t_1d written ok
           iom_nf90_rp0123d, file: domain_cfg_0000.nc, var: e3w_1d defined ok
           iom_nf90_rp0123d, file: domain_cfg_0000.nc, var: e3w_1d written ok
           iom_nf90_rp0123d, file: domain_cfg_0000.nc, var: e3t_0 defined ok
           iom_nf90_rp0123d, file: domain_cfg_0000.nc, var: e3t_0 written ok
           iom_nf90_rp0123d, file: domain_cfg_0000.nc, var: e3u_0 defined ok
           iom_nf90_rp0123d, file: domain_cfg_0000.nc, var: e3u_0 written ok
           iom_nf90_rp0123d, file: domain_cfg_0000.nc, var: e3v_0 defined ok
           iom_nf90_rp0123d, file: domain_cfg_0000.nc, var: e3v_0 written ok
           iom_nf90_rp0123d, file: domain_cfg_0000.nc, var: e3f_0 defined ok
           iom_nf90_rp0123d, file: domain_cfg_0000.nc, var: e3f_0 written ok
           iom_nf90_rp0123d, file: domain_cfg_0000.nc, var: e3w_0 defined ok
           iom_nf90_rp0123d, file: domain_cfg_0000.nc, var: e3w_0 written ok
           iom_nf90_rp0123d, file: domain_cfg_0000.nc, var: e3uw_0 defined ok
           iom_nf90_rp0123d, file: domain_cfg_0000.nc, var: e3uw_0 written ok
           iom_nf90_rp0123d, file: domain_cfg_0000.nc, var: e3vw_0 defined ok
           iom_nf90_rp0123d, file: domain_cfg_0000.nc, var: e3vw_0 written ok
           iom_nf90_rp0123d, file: domain_cfg_0000.nc, var: gdept_1d defined ok
           iom_nf90_rp0123d, file: domain_cfg_0000.nc, var: gdept_1d written ok
           iom_nf90_rp0123d, file: domain_cfg_0000.nc, var: gdepw_1d defined ok
           iom_nf90_rp0123d, file: domain_cfg_0000.nc, var: gdepw_1d written ok
           iom_nf90_rp0123d, file: domain_cfg_0000.nc, var: gdept_0 defined ok
           iom_nf90_rp0123d, file: domain_cfg_0000.nc, var: gdept_0 written ok
           iom_nf90_rp0123d, file: domain_cfg_0000.nc, var: gdepw_0 defined ok
           iom_nf90_rp0123d, file: domain_cfg_0000.nc, var: gdepw_0 written ok
           iom_nf90_rp0123d, file: domain_cfg_0000.nc, var: bottom_level defined ok
           iom_nf90_rp0123d, file: domain_cfg_0000.nc, var: bottom_level written ok
           iom_nf90_rp0123d, file: domain_cfg_0000.nc, var: top_level defined ok
           iom_nf90_rp0123d, file: domain_cfg_0000.nc, var: top_level written ok
 
 dom_stiff_tool : maximum grid stiffness ratio:  9.9000000000000838
 ~~~~~~~~~
           iom_nf90_rp0123d, file: domain_cfg_0000.nc, var: stiffness defined ok
           iom_nf90_rp0123d, file: domain_cfg_0000.nc, var: stiffness written ok
                     iom_close ~~~ close file: domain_cfg_0000.nc ok
